1

   Abaqus 2020                                  Date 17-Jan-2022   Time 13:59:06
   For use by PURDUE UNIVERSITY under license from Dassault Systemes or its subsidiary.

                                                                                 
                                                                                 
 STEP    1     INCREMENT     1     STEP TIME    0.00    


                        S T E P       1     S T A T I C   A N A L Y S I S


                                                                                          

     AUTOMATIC TIME CONTROL WITH -
          A SUGGESTED INITIAL TIME INCREMENT OF                 1.00    
          AND A TOTAL TIME PERIOD OF                            10.0    
          THE MINIMUM TIME INCREMENT ALLOWED IS                1.000E-04
          THE MAXIMUM TIME INCREMENT ALLOWED IS                 1.00    

     LINEAR EQUATION SOLVER TYPE         DIRECT SPARSE

 CONVERGENCE TOLERANCE PARAMETERS FOR FORCE    
     CRITERION FOR RESIDUAL FORCE     FOR A NONLINEAR PROBLEM          5.000E-03
     CRITERION FOR DISP.    CORRECTION IN A NONLINEAR PROBLEM          1.000E-02
     INITIAL VALUE OF TIME AVERAGE FORCE                               1.000E-02
     AVERAGE FORCE     IS TIME AVERAGE FORCE    
     ALTERNATE CRIT. FOR RESIDUAL FORCE     FOR A NONLINEAR PROBLEM    2.000E-02
     CRITERION FOR ZERO FORCE     RELATIVE TO TIME AVRG. FORCE         1.000E-05
     CRITERION FOR RESIDUAL FORCE     WHEN THERE IS ZERO FLUX          1.000E-05
     CRITERION FOR DISP.    CORRECTION WHEN THERE IS ZERO FLUX         1.000E-03
     CRITERION FOR RESIDUAL FORCE     FOR A LINEAR INCREMENT           1.000E-08
     FIELD CONVERSION RATIO                                             1.00    
     CRITERION FOR ZERO FORCE     REL. TO TIME AVRG. MAX. FORCE        1.000E-05
     CRITERION FOR ZERO DISP.    RELATIVE TO CHARACTERISTIC LENGTH     1.000E-08

 CONVERGENCE TOLERANCE PARAMETERS FOR MOMENT   
     CRITERION FOR RESIDUAL MOMENT    FOR A NONLINEAR PROBLEM          5.000E-03
     CRITERION FOR ROTATION CORRECTION IN A NONLINEAR PROBLEM          1.000E-02
     INITIAL VALUE OF TIME AVERAGE MOMENT                              1.000E-02
     AVERAGE MOMENT    IS TIME AVERAGE MOMENT   
     ALTERNATE CRIT. FOR RESIDUAL MOMENT    FOR A NONLINEAR PROBLEM    2.000E-02
     CRITERION FOR ZERO MOMENT    RELATIVE TO TIME AVRG. MOMENT        1.000E-05
     CRITERION FOR RESIDUAL MOMENT    WHEN THERE IS ZERO FLUX          1.000E-05
     CRITERION FOR ROTATION CORRECTION WHEN THERE IS ZERO FLUX         1.000E-03
     CRITERION FOR RESIDUAL MOMENT    FOR A LINEAR INCREMENT           1.000E-08
     FIELD CONVERSION RATIO                                             1.00    
     CRITERION FOR ZERO MOMENT    REL. TO TIME AVRG. MAX. MOMENT       1.000E-05

 CONVERGENCE TOLERANCE PARAMETERS FOR CAV. VOL.
     CRITERION FOR RESIDUAL CAV. VOL. FOR A NONLINEAR PROBLEM          5.000E-03
     CRITERION FOR H.PRESS. CORRECTION IN A NONLINEAR PROBLEM          1.000E-02
     INITIAL VALUE OF TIME AVERAGE CAV. VOL.                           1.000E-02
     AVERAGE CAV. VOL. IS TIME AVERAGE CAV. VOL.
     ALTERNATE CRIT. FOR RESIDUAL CAV. VOL. FOR A NONLINEAR PROBLEM    2.000E-02
     CRITERION FOR ZERO CAV. VOL. RELATIVE TO TIME AVRG. CAV. VOL.     1.000E-05
     CRITERION FOR RESIDUAL CAV. VOL. WHEN THERE IS ZERO FLUX          1.000E-05
     CRITERION FOR H.PRESS. CORRECTION WHEN THERE IS ZERO FLUX         1.000E-03
     CRITERION FOR RESIDUAL CAV. VOL. FOR A LINEAR INCREMENT           1.000E-08
     FIELD CONVERSION RATIO                                             1.00    
     CRITERION FOR ZERO CAV. VOL. REL. TO TIME AVRG. MAX. CAV. VOL.    1.000E-05

     VOLUMETRIC STRAIN COMPATIBILITY TOLERANCE FOR HYBRID SOLIDS       1.000E-05
     AXIAL STRAIN COMPATIBILITY TOLERANCE FOR HYBRID BEAMS             1.000E-05
     TRANS. SHEAR STRAIN COMPATIBILITY TOLERANCE FOR HYBRID BEAMS      1.000E-05
     SOFT CONTACT CONSTRAINT COMPATIBILITY TOLERANCE FOR P>P0          5.000E-03
     SOFT CONTACT CONSTRAINT COMPATIBILITY TOLERANCE FOR P=0.0         0.100    
     CONTACT FORCE ERROR TOLERANCE FOR CONVERT SDI=YES                 1.00    
     DISPLACEMENT COMPATIBILITY TOLERANCE FOR DCOUP ELEMENTS           1.000E-05
     ROTATION COMPATIBILITY TOLERANCE FOR DCOUP ELEMENTS               1.000E-05

 EQUILIBRIUM WILL BE CHECKED FOR SEVERE DISCONTINUITY ITERATIONS

 TIME INCREMENTATION CONTROL PARAMETERS:
     FIRST EQUILIBRIUM ITERATION FOR CONSECUTIVE DIVERGENCE CHECK              4
     EQUILIBRIUM ITERATION AT WHICH LOG. CONVERGENCE RATE CHECK BEGINS         8
     EQUILIBRIUM ITERATION AFTER WHICH ALTERNATE RESIDUAL IS USED              9
     MAXIMUM EQUILIBRIUM ITERATIONS ALLOWED                                   16
     EQUILIBRIUM ITERATION COUNT FOR CUT-BACK IN NEXT INCREMENT               10
     MAXIMUM EQUILIB. ITERS IN TWO INCREMENTS FOR TIME INCREMENT INCREASE      4
     MAXIMUM ITERATIONS FOR SEVERE DISCONTINUITIES                            50
     MAXIMUM ATTEMPTS ALLOWED IN AN INCREMENT                                  5
     MAXIMUM DISCON. ITERS IN TWO INCREMENTS FOR TIME INCREMENT INCREASE      50
     MAXIMUM CONTACT AUGMENTATIONS FOR *SURFACE BEHAVIOR,AUGMENTED LAGRANGE   50
     CUT-BACK FACTOR AFTER DIVERGENCE                                 0.2500    
     CUT-BACK FACTOR FOR TOO SLOW CONVERGENCE                         0.5000    
     CUT-BACK FACTOR AFTER TOO MANY EQUILIBRIUM ITERATIONS            0.7500    
     CUT-BACK FACTOR AFTER TOO MANY SEVERE DISCONTINUITY ITERATIONS   0.2500    
     CUT-BACK FACTOR AFTER PROBLEMS IN ELEMENT ASSEMBLY               0.2500    
     INCREASE FACTOR AFTER TWO INCREMENTS THAT CONVERGE QUICKLY        1.500    
     MAX. TIME INCREMENT INCREASE FACTOR ALLOWED                       1.500    
     MAX. TIME INCREMENT INCREASE FACTOR ALLOWED (DYNAMICS)            1.250    
     MAX. TIME INCREMENT INCREASE FACTOR ALLOWED (DIFFUSION)           2.000    
     MINIMUM TIME INCREMENT RATIO FOR EXTRAPOLATION TO OCCUR          0.1000    
     MAX. RATIO OF TIME INCREMENT TO STABILITY LIMIT                   1.000    
     FRACTION OF STABILITY LIMIT FOR NEW TIME INCREMENT               0.9500    
     TIME INCREMENT INCREASE FACTOR BEFORE A TIME POINT                1.000    
     GLOBAL STABILIZATION CONTROL IS NOT USED

          PRINT OF INCREMENT NUMBER, TIME, ETC., EVERY    1  INCREMENTS

     THE MAXIMUM NUMBER OF INCREMENTS IN THIS STEP IS                     100

          LARGE DISPLACEMENT THEORY WILL BE USED

     LINEAR EXTRAPOLATION WILL BE USED

     CHARACTERISTIC ELEMENT LENGTH     0.237    

     DETAILS REGARDING ACTUAL SOLUTION WAVEFRONT REQUESTED

     DETAILED OUTPUT OF DIAGNOSTICS TO DATABASE REQUESTED

     PRINT OF INCREMENT NUMBER, TIME, ETC., TO THE MESSAGE FILE EVERY     1  INCREMENTS

     COLLECTING MODEL CONSTRAINT INFORMATION FOR OVERCONSTRAINT CHECKS

     COLLECTING STEP CONSTRAINT INFORMATION FOR OVERCONSTRAINT CHECKS


  INCREMENT     1 STARTS. ATTEMPT NUMBER  1, TIME INCREMENT   1.00    

  NUMBER OF EQUATIONS =     16280     NUMBER OF RHS =    1
  NUMBER OF FLOATING PT. OPERATIONS =  6.65E+08

     CHECK POINT   START OF SOLVER    

     CHECK POINT  END OF SOLVER       

       ELAPSED USER TIME (SEC)      =  0.29000    
       ELAPSED SYSTEM TIME (SEC)    =  4.00000E-02
       ELAPSED TOTAL CPU TIME (SEC) =  0.33000    
       ELAPSED WALLCLOCK TIME (SEC) =          1

               CONVERGENCE CHECKS FOR EQUILIBRIUM ITERATION     1


 AVERAGE FORCE                      2.932E-06   TIME AVG. FORCE       2.932E-06
 LARGEST RESIDUAL FORCE             4.794E-05   AT NODE       2408   DOF  3
   INSTANCE: SE_SKIN-1                                                                       
 LARGEST INCREMENT OF DISP.         0.259       AT NODE       2463   DOF  3
   INSTANCE: SE_SKIN-1                                                                       
 LARGEST CORRECTION TO DISP.        0.259       AT NODE       2463   DOF  3
   INSTANCE: SE_SKIN-1                                                                       
          FORCE     EQUILIBRIUM NOT ACHIEVED WITHIN TOLERANCE.

 AVERAGE MOMENT                      0.00       TIME AVG. MOMENT      1.000E-02
 ALL MOMENT    RESIDUALS ARE ZERO
 LARGEST INCREMENT OF ROTATION      1.606E-43   AT NODE          4   DOF  5
   INSTANCE: {assembly node}                                                                 
 LARGEST CORRECTION TO ROTATION     1.606E-43   AT NODE          4   DOF  5
   INSTANCE: {assembly node}                                                                 
          THERE IS ZERO MOMENT    EVERYWHERE

 AVERAGE CAV. VOL.                  1.333E-02   TIME AVG. CAV. VOL.   1.333E-02
 ALL CAV. VOL. RESIDUALS ARE ZERO
 LARGEST INCREMENT OF H.PRESS.      1.000E-05   AT NODE          3   DOF  8
   INSTANCE: {assembly node}                                                                 
 LARGEST CORRECTION TO H.PRESS.     1.000E-05   AT NODE          3   DOF  8
   INSTANCE: {assembly node}                                                                 
          THE CAV. VOL. EQUILIBRIUM RESPONSE WAS LINEAR IN THIS INCREMENT

 COMPATIBILITY ERRORS:
    TYPE                NUMBER EXCEEDING TOLERANCE  MAXIMUM ERROR        IN ELEMENT
 VOLUMETRIC                       2241                9.556E-03               2185
   INSTANCE: SE_SKIN-1                                                                       

  NUMBER OF EQUATIONS =     16280     NUMBER OF RHS =    1
  NUMBER OF FLOATING PT. OPERATIONS =  6.65E+08

     CHECK POINT   START OF SOLVER    

     CHECK POINT  END OF SOLVER       

       ELAPSED USER TIME (SEC)      =  0.26000    
       ELAPSED SYSTEM TIME (SEC)    =  3.00000E-02
       ELAPSED TOTAL CPU TIME (SEC) =  0.29000    
       ELAPSED WALLCLOCK TIME (SEC) =          1

               CONVERGENCE CHECKS FOR EQUILIBRIUM ITERATION     2


 AVERAGE FORCE                      2.416E-06   TIME AVG. FORCE       2.416E-06
 LARGEST RESIDUAL FORCE             1.530E-04   AT NODE       4074   DOF  3
   INSTANCE: SE_SKIN-1                                                                       
 LARGEST INCREMENT OF DISP.         0.184       AT NODE       2435   DOF  3
   INSTANCE: SE_SKIN-1                                                                       
 LARGEST CORRECTION TO DISP.       -7.576E-02   AT NODE       2463   DOF  3
   INSTANCE: SE_SKIN-1                                                                       
          FORCE     EQUILIBRIUM NOT ACHIEVED WITHIN TOLERANCE.

 AVERAGE MOMENT                      0.00       TIME AVG. MOMENT      1.000E-02
 ALL MOMENT    RESIDUALS ARE ZERO
 LARGEST INCREMENT OF ROTATION      2.522E-42   AT NODE          4   DOF  6
   INSTANCE: {assembly node}                                                                 
 LARGEST CORRECTION TO ROTATION     2.505E-42   AT NODE          4   DOF  6
   INSTANCE: {assembly node}                                                                 
          THERE IS ZERO MOMENT    EVERYWHERE

 AVERAGE CAV. VOL.                  1.333E-02   TIME AVG. CAV. VOL.   1.333E-02
 ALL CAV. VOL. RESIDUALS ARE ZERO
 LARGEST INCREMENT OF H.PRESS.      1.000E-05   AT NODE          3   DOF  8
   INSTANCE: {assembly node}                                                                 
 LARGEST CORRECTION TO H.PRESS.     4.933E-36   AT NODE          3   DOF  8
   INSTANCE: {assembly node}                                                                 
          THE CAV. VOL. EQUILIBRIUM EQUATIONS HAVE CONVERGED

 COMPATIBILITY ERRORS:
    TYPE                NUMBER EXCEEDING TOLERANCE  MAXIMUM ERROR        IN ELEMENT
 VOLUMETRIC                       1953                2.569E-03                502
   INSTANCE: SE_SKIN-1                                                                       

  NUMBER OF EQUATIONS =     16280     NUMBER OF RHS =    1
  NUMBER OF FLOATING PT. OPERATIONS =  6.65E+08

     CHECK POINT   START OF SOLVER    

     CHECK POINT  END OF SOLVER       

       ELAPSED USER TIME (SEC)      =  0.26000    
       ELAPSED SYSTEM TIME (SEC)    =  2.00000E-02
       ELAPSED TOTAL CPU TIME (SEC) =  0.28000    
       ELAPSED WALLCLOCK TIME (SEC) =          0

               CONVERGENCE CHECKS FOR EQUILIBRIUM ITERATION     3


 AVERAGE FORCE                      1.793E-06   TIME AVG. FORCE       1.793E-06
 LARGEST RESIDUAL FORCE            -1.268E-04   AT NODE        777   DOF  3
   INSTANCE: SE_SKIN-1                                                                       
 LARGEST INCREMENT OF DISP.         0.130       AT NODE       2463   DOF  3
   INSTANCE: SE_SKIN-1                                                                       
 LARGEST CORRECTION TO DISP.       -0.131       AT NODE       2471   DOF  3
   INSTANCE: SE_SKIN-1                                                                       
          FORCE     EQUILIBRIUM NOT ACHIEVED WITHIN TOLERANCE.

 AVERAGE MOMENT                      0.00       TIME AVG. MOMENT      1.000E-02
 ALL MOMENT    RESIDUALS ARE ZERO
 LARGEST INCREMENT OF ROTATION     -5.007E-42   AT NODE          4   DOF  6
   INSTANCE: {assembly node}                                                                 
 LARGEST CORRECTION TO ROTATION    -7.528E-42   AT NODE          4   DOF  6
   INSTANCE: {assembly node}                                                                 
          THERE IS ZERO MOMENT    EVERYWHERE

 AVERAGE CAV. VOL.                  1.333E-02   TIME AVG. CAV. VOL.   1.333E-02
 ALL CAV. VOL. RESIDUALS ARE ZERO
 LARGEST INCREMENT OF H.PRESS.      1.000E-05   AT NODE          3   DOF  8
   INSTANCE: {assembly node}                                                                 
 LARGEST CORRECTION TO H.PRESS.     3.018E-36   AT NODE          3   DOF  8
   INSTANCE: {assembly node}                                                                 
          THE CAV. VOL. EQUILIBRIUM EQUATIONS HAVE CONVERGED

 COMPATIBILITY ERRORS:
    TYPE                NUMBER EXCEEDING TOLERANCE  MAXIMUM ERROR        IN ELEMENT
 VOLUMETRIC                       1932                2.622E-02               2056
   INSTANCE: SE_SKIN-1                                                                       

  NUMBER OF EQUATIONS =     16280     NUMBER OF RHS =    1
  NUMBER OF FLOATING PT. OPERATIONS =  6.65E+08

     CHECK POINT   START OF SOLVER    

     CHECK POINT  END OF SOLVER       

       ELAPSED USER TIME (SEC)      =  0.25000    
       ELAPSED SYSTEM TIME (SEC)    =  3.00000E-02
       ELAPSED TOTAL CPU TIME (SEC) =  0.28000    
       ELAPSED WALLCLOCK TIME (SEC) =          0

               CONVERGENCE CHECKS FOR EQUILIBRIUM ITERATION     4


 AVERAGE FORCE                      2.237E-06   TIME AVG. FORCE       2.237E-06
 LARGEST RESIDUAL FORCE             8.916E-05   AT NODE       4256   DOF  3
   INSTANCE: SE_SKIN-1                                                                       
 LARGEST INCREMENT OF DISP.         0.230       AT NODE       2463   DOF  3
   INSTANCE: SE_SKIN-1                                                                       
 LARGEST CORRECTION TO DISP.        0.147       AT NODE       2532   DOF  3
   INSTANCE: SE_SKIN-1                                                                       
          FORCE     EQUILIBRIUM NOT ACHIEVED WITHIN TOLERANCE.

 AVERAGE MOMENT                      0.00       TIME AVG. MOMENT      1.000E-02
 ALL MOMENT    RESIDUALS ARE ZERO
 LARGEST INCREMENT OF ROTATION      2.743E-42   AT NODE          4   DOF  6
   INSTANCE: {assembly node}                                                                 
 LARGEST CORRECTION TO ROTATION     7.750E-42   AT NODE          4   DOF  6
   INSTANCE: {assembly node}                                                                 
          THERE IS ZERO MOMENT    EVERYWHERE

 AVERAGE CAV. VOL.                  1.333E-02   TIME AVG. CAV. VOL.   1.333E-02
 ALL CAV. VOL. RESIDUALS ARE ZERO
 LARGEST INCREMENT OF H.PRESS.      1.000E-05   AT NODE          3   DOF  8
   INSTANCE: {assembly node}                                                                 
 LARGEST CORRECTION TO H.PRESS.     5.433E-36   AT NODE          3   DOF  8
   INSTANCE: {assembly node}                                                                 
          THE CAV. VOL. EQUILIBRIUM EQUATIONS HAVE CONVERGED

 COMPATIBILITY ERRORS:
    TYPE                NUMBER EXCEEDING TOLERANCE  MAXIMUM ERROR        IN ELEMENT
 VOLUMETRIC                       1899                1.543E-02               2087
   INSTANCE: SE_SKIN-1                                                                       

  NUMBER OF EQUATIONS =     16280     NUMBER OF RHS =    1
  NUMBER OF FLOATING PT. OPERATIONS =  6.65E+08

     CHECK POINT   START OF SOLVER    

     CHECK POINT  END OF SOLVER       

       ELAPSED USER TIME (SEC)      =  0.26000    
       ELAPSED SYSTEM TIME (SEC)    =  2.00000E-02
       ELAPSED TOTAL CPU TIME (SEC) =  0.28000    
       ELAPSED WALLCLOCK TIME (SEC) =          0

               CONVERGENCE CHECKS FOR EQUILIBRIUM ITERATION     5


 AVERAGE FORCE                      1.719E-06   TIME AVG. FORCE       1.719E-06
 LARGEST RESIDUAL FORCE             1.698E-04   AT NODE       4335   DOF  3
   INSTANCE: SE_SKIN-1                                                                       
 LARGEST INCREMENT OF DISP.         0.174       AT NODE       2463   DOF  3
   INSTANCE: SE_SKIN-1                                                                       
 LARGEST CORRECTION TO DISP.       -5.601E-02   AT NODE       2529   DOF  3
   INSTANCE: SE_SKIN-1                                                                       
          FORCE     EQUILIBRIUM NOT ACHIEVED WITHIN TOLERANCE.

 AVERAGE MOMENT                      0.00       TIME AVG. MOMENT      1.000E-02
 ALL MOMENT    RESIDUALS ARE ZERO
 LARGEST INCREMENT OF ROTATION      3.439E-42   AT NODE          4   DOF  6
   INSTANCE: {assembly node}                                                                 
 LARGEST CORRECTION TO ROTATION     6.955E-43   AT NODE          4   DOF  6
   INSTANCE: {assembly node}                                                                 
          THERE IS ZERO MOMENT    EVERYWHERE

 AVERAGE CAV. VOL.                  1.333E-02   TIME AVG. CAV. VOL.   1.333E-02
 ALL CAV. VOL. RESIDUALS ARE ZERO
 LARGEST INCREMENT OF H.PRESS.      1.000E-05   AT NODE          3   DOF  8
   INSTANCE: {assembly node}                                                                 
 LARGEST CORRECTION TO H.PRESS.     4.494E-36   AT NODE          3   DOF  8
   INSTANCE: {assembly node}                                                                 
          THE CAV. VOL. EQUILIBRIUM EQUATIONS HAVE CONVERGED

 COMPATIBILITY ERRORS:
    TYPE                NUMBER EXCEEDING TOLERANCE  MAXIMUM ERROR        IN ELEMENT
 VOLUMETRIC                       1679                3.534E-03                536
   INSTANCE: SE_SKIN-1                                                                       
 

 ***NOTE: THE SOLUTION APPEARS TO BE DIVERGING. CONVERGENCE IS JUDGED UNLIKELY.


  INCREMENT     1 STARTS. ATTEMPT NUMBER  2, TIME INCREMENT  0.250    

  NUMBER OF EQUATIONS =     16280     NUMBER OF RHS =    1
  NUMBER OF FLOATING PT. OPERATIONS =  6.65E+08

     CHECK POINT   START OF SOLVER    

     CHECK POINT  END OF SOLVER       

       ELAPSED USER TIME (SEC)      =  0.26000    
       ELAPSED SYSTEM TIME (SEC)    =  3.00000E-02
       ELAPSED TOTAL CPU TIME (SEC) =  0.29000    
       ELAPSED WALLCLOCK TIME (SEC) =          0

               CONVERGENCE CHECKS FOR EQUILIBRIUM ITERATION     1


 AVERAGE FORCE                      5.186E-07   TIME AVG. FORCE       5.186E-07
 LARGEST RESIDUAL FORCE             7.099E-06   AT NODE       3469   DOF  3
   INSTANCE: SE_SKIN-1                                                                       
 LARGEST INCREMENT OF DISP.         6.474E-02   AT NODE       2463   DOF  3
   INSTANCE: SE_SKIN-1                                                                       
 LARGEST CORRECTION TO DISP.        6.474E-02   AT NODE       2463   DOF  3
   INSTANCE: SE_SKIN-1                                                                       
          FORCE     EQUILIBRIUM NOT ACHIEVED WITHIN TOLERANCE.

 AVERAGE MOMENT                      0.00       TIME AVG. MOMENT      1.000E-02
 ALL MOMENT    RESIDUALS ARE ZERO
 LARGEST INCREMENT OF ROTATION      4.250E-44   AT NODE          4   DOF  5
   INSTANCE: {assembly node}                                                                 
 LARGEST CORRECTION TO ROTATION     4.250E-44   AT NODE          4   DOF  5
   INSTANCE: {assembly node}                                                                 
          THERE IS ZERO MOMENT    EVERYWHERE

 AVERAGE CAV. VOL.                  1.333E-02   TIME AVG. CAV. VOL.   1.333E-02
 ALL CAV. VOL. RESIDUALS ARE ZERO
 LARGEST INCREMENT OF H.PRESS.      2.500E-06   AT NODE          3   DOF  8
   INSTANCE: {assembly node}                                                                 
 LARGEST CORRECTION TO H.PRESS.     2.500E-06   AT NODE          3   DOF  8
   INSTANCE: {assembly node}                                                                 
          THE CAV. VOL. EQUILIBRIUM RESPONSE WAS LINEAR IN THIS INCREMENT

 COMPATIBILITY ERRORS:
    TYPE                NUMBER EXCEEDING TOLERANCE  MAXIMUM ERROR        IN ELEMENT
 VOLUMETRIC                       1970                6.022E-04               2185
   INSTANCE: SE_SKIN-1                                                                       

  NUMBER OF EQUATIONS =     16280     NUMBER OF RHS =    1
  NUMBER OF FLOATING PT. OPERATIONS =  6.65E+08

     CHECK POINT   START OF SOLVER    

     CHECK POINT  END OF SOLVER       

       ELAPSED USER TIME (SEC)      =  0.25000    
       ELAPSED SYSTEM TIME (SEC)    =  2.00000E-02
       ELAPSED TOTAL CPU TIME (SEC) =  0.27000    
       ELAPSED WALLCLOCK TIME (SEC) =          0

               CONVERGENCE CHECKS FOR EQUILIBRIUM ITERATION     2


 AVERAGE FORCE                      5.632E-07   TIME AVG. FORCE       5.632E-07
 LARGEST RESIDUAL FORCE            -2.664E-05   AT NODE       1018   DOF  3
   INSTANCE: SE_SKIN-1                                                                       
 LARGEST INCREMENT OF DISP.         7.462E-02   AT NODE       2463   DOF  3
   INSTANCE: SE_SKIN-1                                                                       
 LARGEST CORRECTION TO DISP.        1.030E-02   AT NODE       2405   DOF  3
   INSTANCE: SE_SKIN-1                                                                       
          FORCE     EQUILIBRIUM NOT ACHIEVED WITHIN TOLERANCE.

 AVERAGE MOMENT                      0.00       TIME AVG. MOMENT      1.000E-02
 ALL MOMENT    RESIDUALS ARE ZERO
 LARGEST INCREMENT OF ROTATION      4.455E-44   AT NODE          4   DOF  5
   INSTANCE: {assembly node}                                                                 
 LARGEST CORRECTION TO ROTATION     9.719E-45   AT NODE          4   DOF  6
   INSTANCE: {assembly node}                                                                 
          THERE IS ZERO MOMENT    EVERYWHERE

 AVERAGE CAV. VOL.                  1.333E-02   TIME AVG. CAV. VOL.   1.333E-02
 ALL CAV. VOL. RESIDUALS ARE ZERO
 LARGEST INCREMENT OF H.PRESS.      2.500E-06   AT NODE          3   DOF  8
   INSTANCE: {assembly node}                                                                 
 LARGEST CORRECTION TO H.PRESS.     1.677E-36   AT NODE          3   DOF  8
   INSTANCE: {assembly node}                                                                 
          THE CAV. VOL. EQUILIBRIUM EQUATIONS HAVE CONVERGED

 COMPATIBILITY ERRORS:
    TYPE                NUMBER EXCEEDING TOLERANCE  MAXIMUM ERROR        IN ELEMENT
 VOLUMETRIC                        715                5.193E-05                719
   INSTANCE: SE_SKIN-1                                                                       

  NUMBER OF EQUATIONS =     16280     NUMBER OF RHS =    1
  NUMBER OF FLOATING PT. OPERATIONS =  6.65E+08

     CHECK POINT   START OF SOLVER    

     CHECK POINT  END OF SOLVER       

       ELAPSED USER TIME (SEC)      =  0.25000    
       ELAPSED SYSTEM TIME (SEC)    =  1.00000E-02
       ELAPSED TOTAL CPU TIME (SEC) =  0.26000    
       ELAPSED WALLCLOCK TIME (SEC) =          0

               CONVERGENCE CHECKS FOR EQUILIBRIUM ITERATION     3


 AVERAGE FORCE                      4.347E-07   TIME AVG. FORCE       4.347E-07
 LARGEST RESIDUAL FORCE            -3.543E-06   AT NODE        728   DOF  3
   INSTANCE: SE_SKIN-1                                                                       
 LARGEST INCREMENT OF DISP.         7.053E-02   AT NODE       2463   DOF  3
   INSTANCE: SE_SKIN-1                                                                       
 LARGEST CORRECTION TO DISP.       -4.296E-03   AT NODE       2405   DOF  3
   INSTANCE: SE_SKIN-1                                                                       
          FORCE     EQUILIBRIUM NOT ACHIEVED WITHIN TOLERANCE.

 AVERAGE MOMENT                      0.00       TIME AVG. MOMENT      1.000E-02
 ALL MOMENT    RESIDUALS ARE ZERO
 LARGEST INCREMENT OF ROTATION      8.828E-44   AT NODE          4   DOF  6
   INSTANCE: {assembly node}                                                                 
 LARGEST CORRECTION TO ROTATION     7.284E-44   AT NODE          4   DOF  6
   INSTANCE: {assembly node}                                                                 
          THERE IS ZERO MOMENT    EVERYWHERE

 AVERAGE CAV. VOL.                  1.333E-02   TIME AVG. CAV. VOL.   1.333E-02
 ALL CAV. VOL. RESIDUALS ARE ZERO
 LARGEST INCREMENT OF H.PRESS.      2.500E-06   AT NODE          3   DOF  8
   INSTANCE: {assembly node}                                                                 
 LARGEST CORRECTION TO H.PRESS.     1.615E-36   AT NODE          3   DOF  8
   INSTANCE: {assembly node}                                                                 
          THE CAV. VOL. EQUILIBRIUM EQUATIONS HAVE CONVERGED

 COMPATIBILITY ERRORS:
    TYPE                NUMBER EXCEEDING TOLERANCE  MAXIMUM ERROR        IN ELEMENT
 VOLUMETRIC                        130                2.161E-05                601
   INSTANCE: SE_SKIN-1                                                                       

  NUMBER OF EQUATIONS =     16280     NUMBER OF RHS =    1
  NUMBER OF FLOATING PT. OPERATIONS =  6.65E+08

     CHECK POINT   START OF SOLVER    

     CHECK POINT  END OF SOLVER       

       ELAPSED USER TIME (SEC)      =  0.27000    
       ELAPSED SYSTEM TIME (SEC)    =  2.00000E-02
       ELAPSED TOTAL CPU TIME (SEC) =  0.29000    
       ELAPSED WALLCLOCK TIME (SEC) =          0

               CONVERGENCE CHECKS FOR EQUILIBRIUM ITERATION     4


 AVERAGE FORCE                      4.266E-07   TIME AVG. FORCE       4.266E-07
 LARGEST RESIDUAL FORCE            -2.416E-07   AT NODE       2306   DOF  1
   INSTANCE: SE_SKIN-1                                                                       
 LARGEST INCREMENT OF DISP.         7.020E-02   AT NODE       2463   DOF  3
   INSTANCE: SE_SKIN-1                                                                       
 LARGEST CORRECTION TO DISP.       -3.420E-04   AT NODE       2523   DOF  3
   INSTANCE: SE_SKIN-1                                                                       
          FORCE     EQUILIBRIUM NOT ACHIEVED WITHIN TOLERANCE.

 AVERAGE MOMENT                      0.00       TIME AVG. MOMENT      1.000E-02
 ALL MOMENT    RESIDUALS ARE ZERO
 LARGEST INCREMENT OF ROTATION      9.121E-44   AT NODE          4   DOF  6
   INSTANCE: {assembly node}                                                                 
 LARGEST CORRECTION TO ROTATION     2.931E-45   AT NODE          4   DOF  6
   INSTANCE: {assembly node}                                                                 
          THERE IS ZERO MOMENT    EVERYWHERE

 AVERAGE CAV. VOL.                  1.333E-02   TIME AVG. CAV. VOL.   1.333E-02
 ALL CAV. VOL. RESIDUALS ARE ZERO
 LARGEST INCREMENT OF H.PRESS.      2.500E-06   AT NODE          3   DOF  8
   INSTANCE: {assembly node}                                                                 
 LARGEST CORRECTION TO H.PRESS.     1.611E-36   AT NODE          3   DOF  8
   INSTANCE: {assembly node}                                                                 
          THE CAV. VOL. EQUILIBRIUM EQUATIONS HAVE CONVERGED

 COMPATIBILITY ERRORS:
    TYPE                NUMBER EXCEEDING TOLERANCE  MAXIMUM ERROR        IN ELEMENT
 VOLUMETRIC                          0                2.516E-07                458
   INSTANCE: SE_SKIN-1                                                                       

  NUMBER OF EQUATIONS =     16280     NUMBER OF RHS =    1
  NUMBER OF FLOATING PT. OPERATIONS =  6.65E+08

     CHECK POINT   START OF SOLVER    

     CHECK POINT  END OF SOLVER       

       ELAPSED USER TIME (SEC)      =  0.26000    
       ELAPSED SYSTEM TIME (SEC)    =  1.00000E-02
       ELAPSED TOTAL CPU TIME (SEC) =  0.27000    
       ELAPSED WALLCLOCK TIME (SEC) =          0

               CONVERGENCE CHECKS FOR EQUILIBRIUM ITERATION     5


 AVERAGE FORCE                      4.264E-07   TIME AVG. FORCE       4.264E-07
 LARGEST RESIDUAL FORCE            -4.282E-08   AT NODE       1012   DOF  3
   INSTANCE: SE_SKIN-1                                                                       
 LARGEST INCREMENT OF DISP.         7.020E-02   AT NODE       2463   DOF  3
   INSTANCE: SE_SKIN-1                                                                       
 LARGEST CORRECTION TO DISP.       -3.185E-05   AT NODE        467   DOF  2
   INSTANCE: SE_SKIN-1                                                                       
          FORCE     EQUILIBRIUM NOT ACHIEVED WITHIN TOLERANCE.

 AVERAGE MOMENT                      0.00       TIME AVG. MOMENT      1.000E-02
 ALL MOMENT    RESIDUALS ARE ZERO
 LARGEST INCREMENT OF ROTATION      9.122E-44   AT NODE          4   DOF  6
   INSTANCE: {assembly node}                                                                 
 LARGEST CORRECTION TO ROTATION     8.353E-48   AT NODE          4   DOF  6
   INSTANCE: {assembly node}                                                                 
          THERE IS ZERO MOMENT    EVERYWHERE

 AVERAGE CAV. VOL.                  1.333E-02   TIME AVG. CAV. VOL.   1.333E-02
 ALL CAV. VOL. RESIDUALS ARE ZERO
 LARGEST INCREMENT OF H.PRESS.      2.500E-06   AT NODE          3   DOF  8
   INSTANCE: {assembly node}                                                                 
 LARGEST CORRECTION TO H.PRESS.     1.611E-36   AT NODE          3   DOF  8
   INSTANCE: {assembly node}                                                                 
          THE CAV. VOL. EQUILIBRIUM EQUATIONS HAVE CONVERGED

 COMPATIBILITY ERRORS:
    TYPE                NUMBER EXCEEDING TOLERANCE  MAXIMUM ERROR        IN ELEMENT
 VOLUMETRIC                          0                6.079E-09                217
   INSTANCE: SE_SKIN-1                                                                       

  NUMBER OF EQUATIONS =     16280     NUMBER OF RHS =    1
  NUMBER OF FLOATING PT. OPERATIONS =  6.65E+08

     CHECK POINT   START OF SOLVER    

     CHECK POINT  END OF SOLVER       

       ELAPSED USER TIME (SEC)      =  0.27000    
       ELAPSED SYSTEM TIME (SEC)    =  2.00000E-02
       ELAPSED TOTAL CPU TIME (SEC) =  0.29000    
       ELAPSED WALLCLOCK TIME (SEC) =          0

               CONVERGENCE CHECKS FOR EQUILIBRIUM ITERATION     6


 AVERAGE FORCE                      4.264E-07   TIME AVG. FORCE       4.264E-07
 LARGEST RESIDUAL FORCE            -4.620E-09   AT NODE        779   DOF  1
   INSTANCE: SE_SKIN-1                                                                       
 LARGEST INCREMENT OF DISP.         7.020E-02   AT NODE       2463   DOF  3
   INSTANCE: SE_SKIN-1                                                                       
 LARGEST CORRECTION TO DISP.       -9.540E-06   AT NODE        981   DOF  1
   INSTANCE: SE_SKIN-1                                                                       
          FORCE     EQUILIBRIUM NOT ACHIEVED WITHIN TOLERANCE.

 AVERAGE MOMENT                      0.00       TIME AVG. MOMENT      1.000E-02
 ALL MOMENT    RESIDUALS ARE ZERO
 LARGEST INCREMENT OF ROTATION      9.122E-44   AT NODE          4   DOF  6
   INSTANCE: {assembly node}                                                                 
 LARGEST CORRECTION TO ROTATION     5.909E-49   AT NODE          4   DOF  5
   INSTANCE: {assembly node}                                                                 
          THERE IS ZERO MOMENT    EVERYWHERE

 AVERAGE CAV. VOL.                  1.333E-02   TIME AVG. CAV. VOL.   1.333E-02
 ALL CAV. VOL. RESIDUALS ARE ZERO
 LARGEST INCREMENT OF H.PRESS.      2.500E-06   AT NODE          3   DOF  8
   INSTANCE: {assembly node}                                                                 
 LARGEST CORRECTION TO H.PRESS.     1.611E-36   AT NODE          3   DOF  8
   INSTANCE: {assembly node}                                                                 
          THE CAV. VOL. EQUILIBRIUM EQUATIONS HAVE CONVERGED

 COMPATIBILITY ERRORS:
    TYPE                NUMBER EXCEEDING TOLERANCE  MAXIMUM ERROR        IN ELEMENT
 VOLUMETRIC                          0                5.644E-10                278
   INSTANCE: SE_SKIN-1                                                                       

  NUMBER OF EQUATIONS =     16280     NUMBER OF RHS =    1
  NUMBER OF FLOATING PT. OPERATIONS =  6.65E+08

     CHECK POINT   START OF SOLVER    

     CHECK POINT  END OF SOLVER       

       ELAPSED USER TIME (SEC)      =  0.26000    
       ELAPSED SYSTEM TIME (SEC)    =  1.00000E-02
       ELAPSED TOTAL CPU TIME (SEC) =  0.27000    
       ELAPSED WALLCLOCK TIME (SEC) =          1

               CONVERGENCE CHECKS FOR EQUILIBRIUM ITERATION     7


 AVERAGE FORCE                      4.264E-07   TIME AVG. FORCE       4.264E-07
 LARGEST RESIDUAL FORCE            -4.229E-11   AT NODE        779   DOF  1
   INSTANCE: SE_SKIN-1                                                                       
 LARGEST INCREMENT OF DISP.         7.020E-02   AT NODE       2463   DOF  3
   INSTANCE: SE_SKIN-1                                                                       
 LARGEST CORRECTION TO DISP.       -7.989E-07   AT NODE        779   DOF  1
   INSTANCE: SE_SKIN-1                                                                       
          THE FORCE     EQUILIBRIUM EQUATIONS HAVE CONVERGED

 AVERAGE MOMENT                      0.00       TIME AVG. MOMENT      1.000E-02
 ALL MOMENT    RESIDUALS ARE ZERO
 LARGEST INCREMENT OF ROTATION      9.122E-44   AT NODE          4   DOF  6
   INSTANCE: {assembly node}                                                                 
 LARGEST CORRECTION TO ROTATION    -1.097E-50   AT NODE          4   DOF  6
   INSTANCE: {assembly node}                                                                 
          THERE IS ZERO MOMENT    EVERYWHERE

 AVERAGE CAV. VOL.                  1.333E-02   TIME AVG. CAV. VOL.   1.333E-02
 ALL CAV. VOL. RESIDUALS ARE ZERO
 LARGEST INCREMENT OF H.PRESS.      2.500E-06   AT NODE          3   DOF  8
   INSTANCE: {assembly node}                                                                 
 LARGEST CORRECTION TO H.PRESS.     1.611E-36   AT NODE          3   DOF  8
   INSTANCE: {assembly node}                                                                 
          THE CAV. VOL. EQUILIBRIUM EQUATIONS HAVE CONVERGED

 COMPATIBILITY ERRORS:
    TYPE                NUMBER EXCEEDING TOLERANCE  MAXIMUM ERROR        IN ELEMENT
 VOLUMETRIC                          0                7.432E-13                538
   INSTANCE: SE_SKIN-1                                                                       

 ITERATION SUMMARY FOR THE INCREMENT:   7 TOTAL ITERATIONS, OF WHICH
   0 ARE SEVERE DISCONTINUITY ITERATIONS AND  7 ARE EQUILIBRIUM ITERATIONS.

 TIME INCREMENT COMPLETED  0.250    ,  FRACTION OF STEP COMPLETED  2.500E-02
 STEP TIME COMPLETED       0.250    ,  TOTAL TIME COMPLETED        0.250    


  INCREMENT     2 STARTS. ATTEMPT NUMBER  1, TIME INCREMENT  0.250    

  NUMBER OF EQUATIONS =     16280     NUMBER OF RHS =    1
  NUMBER OF FLOATING PT. OPERATIONS =  6.65E+08

     CHECK POINT   START OF SOLVER    

     CHECK POINT  END OF SOLVER       

       ELAPSED USER TIME (SEC)      =  0.26000    
       ELAPSED SYSTEM TIME (SEC)    =  2.00000E-02
       ELAPSED TOTAL CPU TIME (SEC) =  0.28000    
       ELAPSED WALLCLOCK TIME (SEC) =          1

               CONVERGENCE CHECKS FOR EQUILIBRIUM ITERATION     1


 AVERAGE FORCE                      8.373E-07   TIME AVG. FORCE       6.319E-07
 LARGEST RESIDUAL FORCE             2.133E-05   AT NODE       2536   DOF  3
   INSTANCE: SE_SKIN-1                                                                       
 LARGEST INCREMENT OF DISP.         4.557E-02   AT NODE       2463   DOF  3
   INSTANCE: SE_SKIN-1                                                                       
 LARGEST CORRECTION TO DISP.       -2.463E-02   AT NODE       2463   DOF  3
   INSTANCE: SE_SKIN-1                                                                       
          FORCE     EQUILIBRIUM NOT ACHIEVED WITHIN TOLERANCE.

 AVERAGE MOMENT                      0.00       TIME AVG. MOMENT      1.000E-02
 ALL MOMENT    RESIDUALS ARE ZERO
 LARGEST INCREMENT OF ROTATION     -3.930E-44   AT NODE          4   DOF  6
   INSTANCE: {assembly node}                                                                 
 LARGEST CORRECTION TO ROTATION    -1.305E-43   AT NODE          4   DOF  6
   INSTANCE: {assembly node}                                                                 
          THERE IS ZERO MOMENT    EVERYWHERE

 AVERAGE CAV. VOL.                  1.333E-02   TIME AVG. CAV. VOL.   1.333E-02
 ALL CAV. VOL. RESIDUALS ARE ZERO
 LARGEST INCREMENT OF H.PRESS.      2.500E-06   AT NODE          3   DOF  8
   INSTANCE: {assembly node}                                                                 
 LARGEST CORRECTION TO H.PRESS.     2.729E-36   AT NODE          3   DOF  8
   INSTANCE: {assembly node}                                                                 
          THE CAV. VOL. EQUILIBRIUM RESPONSE WAS LINEAR IN THIS INCREMENT

 COMPATIBILITY ERRORS:
    TYPE                NUMBER EXCEEDING TOLERANCE  MAXIMUM ERROR        IN ELEMENT
 VOLUMETRIC                       1610                8.733E-05               2185
   INSTANCE: SE_SKIN-1                                                                       

  NUMBER OF EQUATIONS =     16280     NUMBER OF RHS =    1
  NUMBER OF FLOATING PT. OPERATIONS =  6.65E+08

     CHECK POINT   START OF SOLVER    

     CHECK POINT  END OF SOLVER       

       ELAPSED USER TIME (SEC)      =  0.25000    
       ELAPSED SYSTEM TIME (SEC)    =  3.00000E-02
       ELAPSED TOTAL CPU TIME (SEC) =  0.28000    
       ELAPSED WALLCLOCK TIME (SEC) =          1

               CONVERGENCE CHECKS FOR EQUILIBRIUM ITERATION     2


 AVERAGE FORCE                      7.973E-07   TIME AVG. FORCE       6.119E-07
 LARGEST RESIDUAL FORCE            -2.321E-06   AT NODE        778   DOF  1
   INSTANCE: SE_SKIN-1                                                                       
 LARGEST INCREMENT OF DISP.         4.362E-02   AT NODE       2463   DOF  3
   INSTANCE: SE_SKIN-1                                                                       
 LARGEST CORRECTION TO DISP.       -2.096E-03   AT NODE       2406   DOF  3
   INSTANCE: SE_SKIN-1                                                                       
          FORCE     EQUILIBRIUM NOT ACHIEVED WITHIN TOLERANCE.

 AVERAGE MOMENT                      0.00       TIME AVG. MOMENT      1.000E-02
 ALL MOMENT    RESIDUALS ARE ZERO
 LARGEST INCREMENT OF ROTATION      4.875E-45   AT NODE          4   DOF  4
   INSTANCE: {assembly node}                                                                 
 LARGEST CORRECTION TO ROTATION     3.916E-44   AT NODE          4   DOF  6
   INSTANCE: {assembly node}                                                                 
          THERE IS ZERO MOMENT    EVERYWHERE

 AVERAGE CAV. VOL.                  1.333E-02   TIME AVG. CAV. VOL.   1.333E-02
 ALL CAV. VOL. RESIDUALS ARE ZERO
 LARGEST INCREMENT OF H.PRESS.      2.500E-06   AT NODE          3   DOF  8
   INSTANCE: {assembly node}                                                                 
 LARGEST CORRECTION TO H.PRESS.     2.681E-36   AT NODE          3   DOF  8
   INSTANCE: {assembly node}                                                                 
          THE CAV. VOL. EQUILIBRIUM EQUATIONS HAVE CONVERGED

 COMPATIBILITY ERRORS:
    TYPE                NUMBER EXCEEDING TOLERANCE  MAXIMUM ERROR        IN ELEMENT
 VOLUMETRIC                          0                8.835E-06                570
   INSTANCE: SE_SKIN-1                                                                       

  NUMBER OF EQUATIONS =     16280     NUMBER OF RHS =    1
  NUMBER OF FLOATING PT. OPERATIONS =  6.65E+08

     CHECK POINT   START OF SOLVER    

     CHECK POINT  END OF SOLVER       

       ELAPSED USER TIME (SEC)      =  0.25000    
       ELAPSED SYSTEM TIME (SEC)    =  2.00000E-02
       ELAPSED TOTAL CPU TIME (SEC) =  0.27000    
       ELAPSED WALLCLOCK TIME (SEC) =          1

               CONVERGENCE CHECKS FOR EQUILIBRIUM ITERATION     3


 AVERAGE FORCE                      8.107E-07   TIME AVG. FORCE       6.186E-07
 LARGEST RESIDUAL FORCE             1.440E-07   AT NODE        750   DOF  1
   INSTANCE: SE_SKIN-1                                                                       
 LARGEST INCREMENT OF DISP.         4.365E-02   AT NODE       2463   DOF  3
   INSTANCE: SE_SKIN-1                                                                       
 LARGEST CORRECTION TO DISP.        2.115E-04   AT NODE        627   DOF  1
   INSTANCE: SE_SKIN-1                                                                       
          FORCE     EQUILIBRIUM NOT ACHIEVED WITHIN TOLERANCE.

 AVERAGE MOMENT                      0.00       TIME AVG. MOMENT      1.000E-02
 ALL MOMENT    RESIDUALS ARE ZERO
 LARGEST INCREMENT OF ROTATION      4.887E-45   AT NODE          4   DOF  4
   INSTANCE: {assembly node}                                                                 
 LARGEST CORRECTION TO ROTATION     4.618E-46   AT NODE          4   DOF  6
   INSTANCE: {assembly node}                                                                 
          THERE IS ZERO MOMENT    EVERYWHERE

 AVERAGE CAV. VOL.                  1.333E-02   TIME AVG. CAV. VOL.   1.333E-02
 ALL CAV. VOL. RESIDUALS ARE ZERO
 LARGEST INCREMENT OF H.PRESS.      2.500E-06   AT NODE          3   DOF  8
   INSTANCE: {assembly node}                                                                 
 LARGEST CORRECTION TO H.PRESS.     2.681E-36   AT NODE          3   DOF  8
   INSTANCE: {assembly node}                                                                 
          THE CAV. VOL. EQUILIBRIUM EQUATIONS HAVE CONVERGED

 COMPATIBILITY ERRORS:
    TYPE                NUMBER EXCEEDING TOLERANCE  MAXIMUM ERROR        IN ELEMENT
 VOLUMETRIC                          0                8.539E-08                676
   INSTANCE: SE_SKIN-1                                                                       

  NUMBER OF EQUATIONS =     16280     NUMBER OF RHS =    1
  NUMBER OF FLOATING PT. OPERATIONS =  6.65E+08

     CHECK POINT   START OF SOLVER    

     CHECK POINT  END OF SOLVER       

       ELAPSED USER TIME (SEC)      =  0.25000    
       ELAPSED SYSTEM TIME (SEC)    =  2.00000E-02
       ELAPSED TOTAL CPU TIME (SEC) =  0.27000    
       ELAPSED WALLCLOCK TIME (SEC) =          0

               CONVERGENCE CHECKS FOR EQUILIBRIUM ITERATION     4


 AVERAGE FORCE                      8.126E-07   TIME AVG. FORCE       6.195E-07
 LARGEST RESIDUAL FORCE             1.427E-08   AT NODE        755   DOF  1
   INSTANCE: SE_SKIN-1                                                                       
 LARGEST INCREMENT OF DISP.         4.365E-02   AT NODE       2463   DOF  3
   INSTANCE: SE_SKIN-1                                                                       
 LARGEST CORRECTION TO DISP.       -5.085E-05   AT NODE        719   DOF  2
   INSTANCE: SE_SKIN-1                                                                       
          FORCE     EQUILIBRIUM NOT ACHIEVED WITHIN TOLERANCE.

 AVERAGE MOMENT                      0.00       TIME AVG. MOMENT      1.000E-02
 ALL MOMENT    RESIDUALS ARE ZERO
 LARGEST INCREMENT OF ROTATION      4.887E-45   AT NODE          4   DOF  4
   INSTANCE: {assembly node}                                                                 
 LARGEST CORRECTION TO ROTATION     5.287E-48   AT NODE          4   DOF  6
   INSTANCE: {assembly node}                                                                 
          THERE IS ZERO MOMENT    EVERYWHERE

 AVERAGE CAV. VOL.                  1.333E-02   TIME AVG. CAV. VOL.   1.333E-02
 ALL CAV. VOL. RESIDUALS ARE ZERO
 LARGEST INCREMENT OF H.PRESS.      2.500E-06   AT NODE          3   DOF  8
   INSTANCE: {assembly node}                                                                 
 LARGEST CORRECTION TO H.PRESS.     2.681E-36   AT NODE          3   DOF  8
   INSTANCE: {assembly node}                                                                 
          THE CAV. VOL. EQUILIBRIUM EQUATIONS HAVE CONVERGED

 COMPATIBILITY ERRORS:
    TYPE                NUMBER EXCEEDING TOLERANCE  MAXIMUM ERROR        IN ELEMENT
 VOLUMETRIC                          0               -9.387E-09                549
   INSTANCE: SE_SKIN-1                                                                       

  NUMBER OF EQUATIONS =     16280     NUMBER OF RHS =    1
  NUMBER OF FLOATING PT. OPERATIONS =  6.65E+08

     CHECK POINT   START OF SOLVER    

     CHECK POINT  END OF SOLVER       

       ELAPSED USER TIME (SEC)      =  0.25000    
       ELAPSED SYSTEM TIME (SEC)    =  2.00000E-02
       ELAPSED TOTAL CPU TIME (SEC) =  0.27000    
       ELAPSED WALLCLOCK TIME (SEC) =          0

               CONVERGENCE CHECKS FOR EQUILIBRIUM ITERATION     5


 AVERAGE FORCE                      8.126E-07   TIME AVG. FORCE       6.195E-07
 LARGEST RESIDUAL FORCE             1.733E-10   AT NODE        721   DOF  1
   INSTANCE: SE_SKIN-1                                                                       
 LARGEST INCREMENT OF DISP.         4.365E-02   AT NODE       2463   DOF  3
   INSTANCE: SE_SKIN-1                                                                       
 LARGEST CORRECTION TO DISP.        1.409E-06   AT NODE        755   DOF  1
   INSTANCE: SE_SKIN-1                                                                       
          THE FORCE     EQUILIBRIUM EQUATIONS HAVE CONVERGED

 AVERAGE MOMENT                      0.00       TIME AVG. MOMENT      1.000E-02
 ALL MOMENT    RESIDUALS ARE ZERO
 LARGEST INCREMENT OF ROTATION      4.887E-45   AT NODE          4   DOF  4
   INSTANCE: {assembly node}                                                                 
 LARGEST CORRECTION TO ROTATION     9.300E-50   AT NODE          4   DOF  6
   INSTANCE: {assembly node}                                                                 
          THERE IS ZERO MOMENT    EVERYWHERE

 AVERAGE CAV. VOL.                  1.333E-02   TIME AVG. CAV. VOL.   1.333E-02
 ALL CAV. VOL. RESIDUALS ARE ZERO
 LARGEST INCREMENT OF H.PRESS.      2.500E-06   AT NODE          3   DOF  8
   INSTANCE: {assembly node}                                                                 
 LARGEST CORRECTION TO H.PRESS.     2.681E-36   AT NODE          3   DOF  8
   INSTANCE: {assembly node}                                                                 
          THE CAV. VOL. EQUILIBRIUM EQUATIONS HAVE CONVERGED

 COMPATIBILITY ERRORS:
    TYPE                NUMBER EXCEEDING TOLERANCE  MAXIMUM ERROR        IN ELEMENT
 VOLUMETRIC                          0                6.807E-12                474
   INSTANCE: SE_SKIN-1                                                                       

 ITERATION SUMMARY FOR THE INCREMENT:   5 TOTAL ITERATIONS, OF WHICH
   0 ARE SEVERE DISCONTINUITY ITERATIONS AND  5 ARE EQUILIBRIUM ITERATIONS.

 TIME INCREMENT COMPLETED  0.250    ,  FRACTION OF STEP COMPLETED  5.000E-02
 STEP TIME COMPLETED       0.500    ,  TOTAL TIME COMPLETED        0.500    


  INCREMENT     3 STARTS. ATTEMPT NUMBER  1, TIME INCREMENT  0.250    

  NUMBER OF EQUATIONS =     16280     NUMBER OF RHS =    1
  NUMBER OF FLOATING PT. OPERATIONS =  6.65E+08

     CHECK POINT   START OF SOLVER    

     CHECK POINT  END OF SOLVER       

       ELAPSED USER TIME (SEC)      =  0.26000    
       ELAPSED SYSTEM TIME (SEC)    =  2.00000E-02
       ELAPSED TOTAL CPU TIME (SEC) =  0.28000    
       ELAPSED WALLCLOCK TIME (SEC) =          0

               CONVERGENCE CHECKS FOR EQUILIBRIUM ITERATION     1


 AVERAGE FORCE                      1.119E-06   TIME AVG. FORCE       7.861E-07
 LARGEST RESIDUAL FORCE             6.514E-06   AT NODE       2422   DOF  3
   INSTANCE: SE_SKIN-1                                                                       
 LARGEST INCREMENT OF DISP.         3.257E-02   AT NODE       2463   DOF  3
   INSTANCE: SE_SKIN-1                                                                       
 LARGEST CORRECTION TO DISP.       -1.108E-02   AT NODE       2463   DOF  3
   INSTANCE: SE_SKIN-1                                                                       
          FORCE     EQUILIBRIUM NOT ACHIEVED WITHIN TOLERANCE.

 AVERAGE MOMENT                      0.00       TIME AVG. MOMENT      1.000E-02
 ALL MOMENT    RESIDUALS ARE ZERO
 LARGEST INCREMENT OF ROTATION     -9.608E-45   AT NODE          4   DOF  6
   INSTANCE: {assembly node}                                                                 
 LARGEST CORRECTION TO ROTATION    -9.936E-45   AT NODE          4   DOF  6
   INSTANCE: {assembly node}                                                                 
          THERE IS ZERO MOMENT    EVERYWHERE

 AVERAGE CAV. VOL.                  1.333E-02   TIME AVG. CAV. VOL.   1.333E-02
 ALL CAV. VOL. RESIDUALS ARE ZERO
 LARGEST INCREMENT OF H.PRESS.      2.500E-06   AT NODE          3   DOF  8
   INSTANCE: {assembly node}                                                                 
 LARGEST CORRECTION TO H.PRESS.     4.235E-22   AT NODE          3   DOF  8
   INSTANCE: {assembly node}                                                                 
          THE CAV. VOL. EQUILIBRIUM RESPONSE WAS LINEAR IN THIS INCREMENT

 COMPATIBILITY ERRORS:
    TYPE                NUMBER EXCEEDING TOLERANCE  MAXIMUM ERROR        IN ELEMENT
 VOLUMETRIC                        653                1.813E-05                571
   INSTANCE: SE_SKIN-1                                                                       

  NUMBER OF EQUATIONS =     16280     NUMBER OF RHS =    1
  NUMBER OF FLOATING PT. OPERATIONS =  6.65E+08

     CHECK POINT   START OF SOLVER    

     CHECK POINT  END OF SOLVER       

       ELAPSED USER TIME (SEC)      =  0.25000    
       ELAPSED SYSTEM TIME (SEC)    =  2.00000E-02
       ELAPSED TOTAL CPU TIME (SEC) =  0.27000    
       ELAPSED WALLCLOCK TIME (SEC) =          0

               CONVERGENCE CHECKS FOR EQUILIBRIUM ITERATION     2


 AVERAGE FORCE                      1.132E-06   TIME AVG. FORCE       7.903E-07
 LARGEST RESIDUAL FORCE            -2.601E-07   AT NODE        718   DOF  3
   INSTANCE: SE_SKIN-1                                                                       
 LARGEST INCREMENT OF DISP.         3.223E-02   AT NODE       2463   DOF  3
   INSTANCE: SE_SKIN-1                                                                       
 LARGEST CORRECTION TO DISP.       -3.696E-04   AT NODE       2375   DOF  3
   INSTANCE: SE_SKIN-1                                                                       
          FORCE     EQUILIBRIUM NOT ACHIEVED WITHIN TOLERANCE.

 AVERAGE MOMENT                      0.00       TIME AVG. MOMENT      1.000E-02
 ALL MOMENT    RESIDUALS ARE ZERO
 LARGEST INCREMENT OF ROTATION     -4.621E-45   AT NODE          4   DOF  6
   INSTANCE: {assembly node}                                                                 
 LARGEST CORRECTION TO ROTATION     4.987E-45   AT NODE          4   DOF  6
   INSTANCE: {assembly node}                                                                 
          THERE IS ZERO MOMENT    EVERYWHERE

 AVERAGE CAV. VOL.                  1.333E-02   TIME AVG. CAV. VOL.   1.333E-02
 ALL CAV. VOL. RESIDUALS ARE ZERO
 LARGEST INCREMENT OF H.PRESS.      2.500E-06   AT NODE          3   DOF  8
   INSTANCE: {assembly node}                                                                 
 LARGEST CORRECTION TO H.PRESS.     3.500E-36   AT NODE          3   DOF  8
   INSTANCE: {assembly node}                                                                 
          THE CAV. VOL. EQUILIBRIUM EQUATIONS HAVE CONVERGED

 COMPATIBILITY ERRORS:
    TYPE                NUMBER EXCEEDING TOLERANCE  MAXIMUM ERROR        IN ELEMENT
 VOLUMETRIC                          0                5.300E-07               2119
   INSTANCE: SE_SKIN-1                                                                       

  NUMBER OF EQUATIONS =     16280     NUMBER OF RHS =    1
  NUMBER OF FLOATING PT. OPERATIONS =  6.65E+08

     CHECK POINT   START OF SOLVER    

     CHECK POINT  END OF SOLVER       

       ELAPSED USER TIME (SEC)      =  0.26000    
       ELAPSED SYSTEM TIME (SEC)    =  1.00000E-02
       ELAPSED TOTAL CPU TIME (SEC) =  0.27000    
       ELAPSED WALLCLOCK TIME (SEC) =          1

               CONVERGENCE CHECKS FOR EQUILIBRIUM ITERATION     3


 AVERAGE FORCE                      1.138E-06   TIME AVG. FORCE       7.924E-07
 LARGEST RESIDUAL FORCE            -4.181E-08   AT NODE        780   DOF  1
   INSTANCE: SE_SKIN-1                                                                       
 LARGEST INCREMENT OF DISP.         3.224E-02   AT NODE       2463   DOF  3
   INSTANCE: SE_SKIN-1                                                                       
 LARGEST CORRECTION TO DISP.       -8.324E-05   AT NODE        718   DOF  2
   INSTANCE: SE_SKIN-1                                                                       
          FORCE     EQUILIBRIUM NOT ACHIEVED WITHIN TOLERANCE.

 AVERAGE MOMENT                      0.00       TIME AVG. MOMENT      1.000E-02
 ALL MOMENT    RESIDUALS ARE ZERO
 LARGEST INCREMENT OF ROTATION     -4.585E-45   AT NODE          4   DOF  6
   INSTANCE: {assembly node}                                                                 
 LARGEST CORRECTION TO ROTATION     3.680E-47   AT NODE          4   DOF  6
   INSTANCE: {assembly node}                                                                 
          THERE IS ZERO MOMENT    EVERYWHERE

 AVERAGE CAV. VOL.                  1.333E-02   TIME AVG. CAV. VOL.   1.333E-02
 ALL CAV. VOL. RESIDUALS ARE ZERO
 LARGEST INCREMENT OF H.PRESS.      2.500E-06   AT NODE          3   DOF  8
   INSTANCE: {assembly node}                                                                 
 LARGEST CORRECTION TO H.PRESS.     3.500E-36   AT NODE          3   DOF  8
   INSTANCE: {assembly node}                                                                 
          THE CAV. VOL. EQUILIBRIUM EQUATIONS HAVE CONVERGED

 COMPATIBILITY ERRORS:
    TYPE                NUMBER EXCEEDING TOLERANCE  MAXIMUM ERROR        IN ELEMENT
 VOLUMETRIC                          0                3.080E-08                581
   INSTANCE: SE_SKIN-1                                                                       

  NUMBER OF EQUATIONS =     16280     NUMBER OF RHS =    1
  NUMBER OF FLOATING PT. OPERATIONS =  6.65E+08

     CHECK POINT   START OF SOLVER    

     CHECK POINT  END OF SOLVER       

       ELAPSED USER TIME (SEC)      =  0.25000    
       ELAPSED SYSTEM TIME (SEC)    =  2.00000E-02
       ELAPSED TOTAL CPU TIME (SEC) =  0.27000    
       ELAPSED WALLCLOCK TIME (SEC) =          1

               CONVERGENCE CHECKS FOR EQUILIBRIUM ITERATION     4


 AVERAGE FORCE                      1.138E-06   TIME AVG. FORCE       7.924E-07
 LARGEST RESIDUAL FORCE             7.094E-09   AT NODE       2424   DOF  3
   INSTANCE: SE_SKIN-1                                                                       
 LARGEST INCREMENT OF DISP.         3.224E-02   AT NODE       2463   DOF  3
   INSTANCE: SE_SKIN-1                                                                       
 LARGEST CORRECTION TO DISP.       -3.876E-06   AT NODE        777   DOF  1
   INSTANCE: SE_SKIN-1                                                                       
          FORCE     EQUILIBRIUM NOT ACHIEVED WITHIN TOLERANCE.

 AVERAGE MOMENT                      0.00       TIME AVG. MOMENT      1.000E-02
 ALL MOMENT    RESIDUALS ARE ZERO
 LARGEST INCREMENT OF ROTATION     -4.585E-45   AT NODE          4   DOF  6
   INSTANCE: {assembly node}                                                                 
 LARGEST CORRECTION TO ROTATION     1.169E-49   AT NODE          4   DOF  4
   INSTANCE: {assembly node}                                                                 
          THERE IS ZERO MOMENT    EVERYWHERE

 AVERAGE CAV. VOL.                  1.333E-02   TIME AVG. CAV. VOL.   1.333E-02
 ALL CAV. VOL. RESIDUALS ARE ZERO
 LARGEST INCREMENT OF H.PRESS.      2.500E-06   AT NODE          3   DOF  8
   INSTANCE: {assembly node}                                                                 
 LARGEST CORRECTION TO H.PRESS.     3.500E-36   AT NODE          3   DOF  8
   INSTANCE: {assembly node}                                                                 
          THE CAV. VOL. EQUILIBRIUM EQUATIONS HAVE CONVERGED

 COMPATIBILITY ERRORS:
    TYPE                NUMBER EXCEEDING TOLERANCE  MAXIMUM ERROR        IN ELEMENT
 VOLUMETRIC                          0                2.886E-11               2117
   INSTANCE: SE_SKIN-1                                                                       

  NUMBER OF EQUATIONS =     16280     NUMBER OF RHS =    1
  NUMBER OF FLOATING PT. OPERATIONS =  6.65E+08

     CHECK POINT   START OF SOLVER    

     CHECK POINT  END OF SOLVER       

       ELAPSED USER TIME (SEC)      =  0.26000    
       ELAPSED SYSTEM TIME (SEC)    =  3.00000E-02
       ELAPSED TOTAL CPU TIME (SEC) =  0.29000    
       ELAPSED WALLCLOCK TIME (SEC) =          1

               CONVERGENCE CHECKS FOR EQUILIBRIUM ITERATION     5


 AVERAGE FORCE                      1.138E-06   TIME AVG. FORCE       7.924E-07
 LARGEST RESIDUAL FORCE             6.586E-11   AT NODE       2424   DOF  3
   INSTANCE: SE_SKIN-1                                                                       
 LARGEST INCREMENT OF DISP.         3.224E-02   AT NODE       2463   DOF  3
   INSTANCE: SE_SKIN-1                                                                       
 LARGEST CORRECTION TO DISP.        2.169E-06   AT NODE        761   DOF  2
   INSTANCE: SE_SKIN-1                                                                       
          THE FORCE     EQUILIBRIUM EQUATIONS HAVE CONVERGED

 AVERAGE MOMENT                      0.00       TIME AVG. MOMENT      1.000E-02
 ALL MOMENT    RESIDUALS ARE ZERO
 LARGEST INCREMENT OF ROTATION     -4.585E-45   AT NODE          4   DOF  6
   INSTANCE: {assembly node}                                                                 
 LARGEST CORRECTION TO ROTATION     1.364E-49   AT NODE          4   DOF  4
   INSTANCE: {assembly node}                                                                 
          THERE IS ZERO MOMENT    EVERYWHERE

 AVERAGE CAV. VOL.                  1.333E-02   TIME AVG. CAV. VOL.   1.333E-02
 ALL CAV. VOL. RESIDUALS ARE ZERO
 LARGEST INCREMENT OF H.PRESS.      2.500E-06   AT NODE          3   DOF  8
   INSTANCE: {assembly node}                                                                 
 LARGEST CORRECTION TO H.PRESS.     3.500E-36   AT NODE          3   DOF  8
   INSTANCE: {assembly node}                                                                 
          THE CAV. VOL. EQUILIBRIUM EQUATIONS HAVE CONVERGED

 COMPATIBILITY ERRORS:
    TYPE                NUMBER EXCEEDING TOLERANCE  MAXIMUM ERROR        IN ELEMENT
 VOLUMETRIC                          0               -1.720E-11                488
   INSTANCE: SE_SKIN-1                                                                       

 ITERATION SUMMARY FOR THE INCREMENT:   5 TOTAL ITERATIONS, OF WHICH
   0 ARE SEVERE DISCONTINUITY ITERATIONS AND  5 ARE EQUILIBRIUM ITERATIONS.

 TIME INCREMENT COMPLETED  0.250    ,  FRACTION OF STEP COMPLETED  7.500E-02
 STEP TIME COMPLETED       0.750    ,  TOTAL TIME COMPLETED        0.750    


  INCREMENT     4 STARTS. ATTEMPT NUMBER  1, TIME INCREMENT  0.250    

  NUMBER OF EQUATIONS =     16280     NUMBER OF RHS =    1
  NUMBER OF FLOATING PT. OPERATIONS =  6.65E+08

     CHECK POINT   START OF SOLVER    

     CHECK POINT  END OF SOLVER       

       ELAPSED USER TIME (SEC)      =  0.26000    
       ELAPSED SYSTEM TIME (SEC)    =  1.00000E-02
       ELAPSED TOTAL CPU TIME (SEC) =  0.27000    
       ELAPSED WALLCLOCK TIME (SEC) =          0

               CONVERGENCE CHECKS FOR EQUILIBRIUM ITERATION     1


 AVERAGE FORCE                      1.408E-06   TIME AVG. FORCE       9.464E-07
 LARGEST RESIDUAL FORCE             8.649E-07   AT NODE        760   DOF  1
   INSTANCE: SE_SKIN-1                                                                       
 LARGEST INCREMENT OF DISP.         2.593E-02   AT NODE        769   DOF  3
   INSTANCE: SE_SKIN-1                                                                       
 LARGEST CORRECTION TO DISP.       -6.315E-03   AT NODE       2463   DOF  3
   INSTANCE: SE_SKIN-1                                                                       
          FORCE     EQUILIBRIUM NOT ACHIEVED WITHIN TOLERANCE.

 AVERAGE MOMENT                      0.00       TIME AVG. MOMENT      1.000E-02
 ALL MOMENT    RESIDUALS ARE ZERO
 LARGEST INCREMENT OF ROTATION     -4.139E-45   AT NODE          4   DOF  6
   INSTANCE: {assembly node}                                                                 
 LARGEST CORRECTION TO ROTATION    -1.227E-45   AT NODE          4   DOF  5
   INSTANCE: {assembly node}                                                                 
          THERE IS ZERO MOMENT    EVERYWHERE

 AVERAGE CAV. VOL.                  1.333E-02   TIME AVG. CAV. VOL.   1.333E-02
 ALL CAV. VOL. RESIDUALS ARE ZERO
 LARGEST INCREMENT OF H.PRESS.      2.500E-06   AT NODE          3   DOF  8
   INSTANCE: {assembly node}                                                                 
 LARGEST CORRECTION TO H.PRESS.     8.470E-22   AT NODE          3   DOF  8
   INSTANCE: {assembly node}                                                                 
          THE CAV. VOL. EQUILIBRIUM RESPONSE WAS LINEAR IN THIS INCREMENT

 COMPATIBILITY ERRORS:
    TYPE                NUMBER EXCEEDING TOLERANCE  MAXIMUM ERROR        IN ELEMENT
 VOLUMETRIC                          0                5.887E-06                539
   INSTANCE: SE_SKIN-1                                                                       

  NUMBER OF EQUATIONS =     16280     NUMBER OF RHS =    1
  NUMBER OF FLOATING PT. OPERATIONS =  6.65E+08

     CHECK POINT   START OF SOLVER    

     CHECK POINT  END OF SOLVER       

       ELAPSED USER TIME (SEC)      =  0.26000    
       ELAPSED SYSTEM TIME (SEC)    =  1.00000E-02
       ELAPSED TOTAL CPU TIME (SEC) =  0.27000    
       ELAPSED WALLCLOCK TIME (SEC) =          0

               CONVERGENCE CHECKS FOR EQUILIBRIUM ITERATION     2


 AVERAGE FORCE                      1.439E-06   TIME AVG. FORCE       9.540E-07
 LARGEST RESIDUAL FORCE             9.301E-08   AT NODE        789   DOF  1
   INSTANCE: SE_SKIN-1                                                                       
 LARGEST INCREMENT OF DISP.         2.583E-02   AT NODE        769   DOF  3
   INSTANCE: SE_SKIN-1                                                                       
 LARGEST CORRECTION TO DISP.       -1.005E-04   AT NODE        738   DOF  3
   INSTANCE: SE_SKIN-1                                                                       
          FORCE     EQUILIBRIUM NOT ACHIEVED WITHIN TOLERANCE.

 AVERAGE MOMENT                      0.00       TIME AVG. MOMENT      1.000E-02
 ALL MOMENT    RESIDUALS ARE ZERO
 LARGEST INCREMENT OF ROTATION     -4.042E-45   AT NODE          4   DOF  6
   INSTANCE: {assembly node}                                                                 
 LARGEST CORRECTION TO ROTATION     9.661E-47   AT NODE          4   DOF  6
   INSTANCE: {assembly node}                                                                 
          THERE IS ZERO MOMENT    EVERYWHERE

 AVERAGE CAV. VOL.                  1.333E-02   TIME AVG. CAV. VOL.   1.333E-02
 ALL CAV. VOL. RESIDUALS ARE ZERO
 LARGEST INCREMENT OF H.PRESS.      2.500E-06   AT NODE          3   DOF  8
   INSTANCE: {assembly node}                                                                 
 LARGEST CORRECTION TO H.PRESS.     4.173E-36   AT NODE          3   DOF  8
   INSTANCE: {assembly node}                                                                 
          THE CAV. VOL. EQUILIBRIUM EQUATIONS HAVE CONVERGED

 COMPATIBILITY ERRORS:
    TYPE                NUMBER EXCEEDING TOLERANCE  MAXIMUM ERROR        IN ELEMENT
 VOLUMETRIC                          0                1.550E-08               2227
   INSTANCE: SE_SKIN-1                                                                       

  NUMBER OF EQUATIONS =     16280     NUMBER OF RHS =    1
  NUMBER OF FLOATING PT. OPERATIONS =  6.65E+08

     CHECK POINT   START OF SOLVER    

     CHECK POINT  END OF SOLVER       

       ELAPSED USER TIME (SEC)      =  0.25000    
       ELAPSED SYSTEM TIME (SEC)    =  1.00000E-02
       ELAPSED TOTAL CPU TIME (SEC) =  0.26000    
       ELAPSED WALLCLOCK TIME (SEC) =          0

               CONVERGENCE CHECKS FOR EQUILIBRIUM ITERATION     3


 AVERAGE FORCE                      1.439E-06   TIME AVG. FORCE       9.540E-07
 LARGEST RESIDUAL FORCE            -5.193E-10   AT NODE        757   DOF  1
   INSTANCE: SE_SKIN-1                                                                       
 LARGEST INCREMENT OF DISP.         2.583E-02   AT NODE        769   DOF  3
   INSTANCE: SE_SKIN-1                                                                       
 LARGEST CORRECTION TO DISP.        1.956E-05   AT NODE        789   DOF  1
   INSTANCE: SE_SKIN-1                                                                       
          THE FORCE     EQUILIBRIUM EQUATIONS HAVE CONVERGED

 AVERAGE MOMENT                      0.00       TIME AVG. MOMENT      1.000E-02
 ALL MOMENT    RESIDUALS ARE ZERO
 LARGEST INCREMENT OF ROTATION     -4.041E-45   AT NODE          4   DOF  6
   INSTANCE: {assembly node}                                                                 
 LARGEST CORRECTION TO ROTATION     1.018E-48   AT NODE          4   DOF  6
   INSTANCE: {assembly node}                                                                 
          THERE IS ZERO MOMENT    EVERYWHERE

 AVERAGE CAV. VOL.                  1.333E-02   TIME AVG. CAV. VOL.   1.333E-02
 ALL CAV. VOL. RESIDUALS ARE ZERO
 LARGEST INCREMENT OF H.PRESS.      2.500E-06   AT NODE          3   DOF  8
   INSTANCE: {assembly node}                                                                 
 LARGEST CORRECTION TO H.PRESS.     4.173E-36   AT NODE          3   DOF  8
   INSTANCE: {assembly node}                                                                 
          THE CAV. VOL. EQUILIBRIUM EQUATIONS HAVE CONVERGED

 COMPATIBILITY ERRORS:
    TYPE                NUMBER EXCEEDING TOLERANCE  MAXIMUM ERROR        IN ELEMENT
 VOLUMETRIC                          0                7.725E-10                518
   INSTANCE: SE_SKIN-1                                                                       

 ITERATION SUMMARY FOR THE INCREMENT:   3 TOTAL ITERATIONS, OF WHICH
   0 ARE SEVERE DISCONTINUITY ITERATIONS AND  3 ARE EQUILIBRIUM ITERATIONS.

 TIME INCREMENT COMPLETED  0.250    ,  FRACTION OF STEP COMPLETED  0.100    
 STEP TIME COMPLETED        1.00    ,  TOTAL TIME COMPLETED         1.00    


  INCREMENT     5 STARTS. ATTEMPT NUMBER  1, TIME INCREMENT  0.250    

  NUMBER OF EQUATIONS =     16280     NUMBER OF RHS =    1
  NUMBER OF FLOATING PT. OPERATIONS =  6.65E+08

     CHECK POINT   START OF SOLVER    

     CHECK POINT  END OF SOLVER       

       ELAPSED USER TIME (SEC)      =  0.26000    
       ELAPSED SYSTEM TIME (SEC)    =  1.00000E-02
       ELAPSED TOTAL CPU TIME (SEC) =  0.27000    
       ELAPSED WALLCLOCK TIME (SEC) =          0

               CONVERGENCE CHECKS FOR EQUILIBRIUM ITERATION     1


 AVERAGE FORCE                      1.684E-06   TIME AVG. FORCE       1.100E-06
 LARGEST RESIDUAL FORCE             1.759E-07   AT NODE       2453   DOF  3
   INSTANCE: SE_SKIN-1                                                                       
 LARGEST INCREMENT OF DISP.         2.177E-02   AT NODE        769   DOF  3
   INSTANCE: SE_SKIN-1                                                                       
 LARGEST CORRECTION TO DISP.       -4.097E-03   AT NODE       2463   DOF  3
   INSTANCE: SE_SKIN-1                                                                       
          FORCE     EQUILIBRIUM NOT ACHIEVED WITHIN TOLERANCE.

 AVERAGE MOMENT                      0.00       TIME AVG. MOMENT      1.000E-02
 ALL MOMENT    RESIDUALS ARE ZERO
 LARGEST INCREMENT OF ROTATION     -1.872E-45   AT NODE          4   DOF  6
   INSTANCE: {assembly node}                                                                 
 LARGEST CORRECTION TO ROTATION     2.272E-45   AT NODE          4   DOF  5
   INSTANCE: {assembly node}                                                                 
          THERE IS ZERO MOMENT    EVERYWHERE

 AVERAGE CAV. VOL.                  1.333E-02   TIME AVG. CAV. VOL.   1.333E-02
 ALL CAV. VOL. RESIDUALS ARE ZERO
 LARGEST INCREMENT OF H.PRESS.      2.500E-06   AT NODE          3   DOF  8
   INSTANCE: {assembly node}                                                                 
 LARGEST CORRECTION TO H.PRESS.    -1.694E-21   AT NODE          3   DOF  8
   INSTANCE: {assembly node}                                                                 
          THE CAV. VOL. EQUILIBRIUM RESPONSE WAS LINEAR IN THIS INCREMENT

 COMPATIBILITY ERRORS:
    TYPE                NUMBER EXCEEDING TOLERANCE  MAXIMUM ERROR        IN ELEMENT
 VOLUMETRIC                          0                2.558E-06                572
   INSTANCE: SE_SKIN-1                                                                       

  NUMBER OF EQUATIONS =     16280     NUMBER OF RHS =    1
  NUMBER OF FLOATING PT. OPERATIONS =  6.65E+08

     CHECK POINT   START OF SOLVER    

     CHECK POINT  END OF SOLVER       

       ELAPSED USER TIME (SEC)      =  0.25000    
       ELAPSED SYSTEM TIME (SEC)    =  2.00000E-02
       ELAPSED TOTAL CPU TIME (SEC) =  0.27000    
       ELAPSED WALLCLOCK TIME (SEC) =          0

               CONVERGENCE CHECKS FOR EQUILIBRIUM ITERATION     2


 AVERAGE FORCE                      1.721E-06   TIME AVG. FORCE       1.107E-06
 LARGEST RESIDUAL FORCE             2.214E-09   AT NODE        586   DOF  1
   INSTANCE: SE_SKIN-1                                                                       
 LARGEST INCREMENT OF DISP.         2.173E-02   AT NODE        769   DOF  3
   INSTANCE: SE_SKIN-1                                                                       
 LARGEST CORRECTION TO DISP.       -3.922E-05   AT NODE        799   DOF  3
   INSTANCE: SE_SKIN-1                                                                       
          THE FORCE     EQUILIBRIUM EQUATIONS HAVE CONVERGED

 AVERAGE MOMENT                      0.00       TIME AVG. MOMENT      1.000E-02
 ALL MOMENT    RESIDUALS ARE ZERO
 LARGEST INCREMENT OF ROTATION     -1.876E-45   AT NODE          4   DOF  6
   INSTANCE: {assembly node}                                                                 
 LARGEST CORRECTION TO ROTATION    -8.371E-48   AT NODE          4   DOF  5
   INSTANCE: {assembly node}                                                                 
          THERE IS ZERO MOMENT    EVERYWHERE

 AVERAGE CAV. VOL.                  1.333E-02   TIME AVG. CAV. VOL.   1.333E-02
 ALL CAV. VOL. RESIDUALS ARE ZERO
 LARGEST INCREMENT OF H.PRESS.      2.500E-06   AT NODE          3   DOF  8
   INSTANCE: {assembly node}                                                                 
 LARGEST CORRECTION TO H.PRESS.     4.747E-36   AT NODE          3   DOF  8
   INSTANCE: {assembly node}                                                                 
          THE CAV. VOL. EQUILIBRIUM EQUATIONS HAVE CONVERGED

 COMPATIBILITY ERRORS:
    TYPE                NUMBER EXCEEDING TOLERANCE  MAXIMUM ERROR        IN ELEMENT
 VOLUMETRIC                          0                2.389E-09                475
   INSTANCE: SE_SKIN-1                                                                       
          TIME INCREMENT MAY NOW INCREASE TO    0.375    

 ITERATION SUMMARY FOR THE INCREMENT:   2 TOTAL ITERATIONS, OF WHICH
   0 ARE SEVERE DISCONTINUITY ITERATIONS AND  2 ARE EQUILIBRIUM ITERATIONS.

 TIME INCREMENT COMPLETED  0.250    ,  FRACTION OF STEP COMPLETED  0.125    
 STEP TIME COMPLETED        1.25    ,  TOTAL TIME COMPLETED         1.25    


  INCREMENT     6 STARTS. ATTEMPT NUMBER  1, TIME INCREMENT  0.375    

  NUMBER OF EQUATIONS =     16280     NUMBER OF RHS =    1
  NUMBER OF FLOATING PT. OPERATIONS =  6.65E+08

     CHECK POINT   START OF SOLVER    

     CHECK POINT  END OF SOLVER       

       ELAPSED USER TIME (SEC)      =  0.25000    
       ELAPSED SYSTEM TIME (SEC)    =  2.00000E-02
       ELAPSED TOTAL CPU TIME (SEC) =  0.27000    
       ELAPSED WALLCLOCK TIME (SEC) =          1

               CONVERGENCE CHECKS FOR EQUILIBRIUM ITERATION     1


 AVERAGE FORCE                      2.074E-06   TIME AVG. FORCE       1.268E-06
 LARGEST RESIDUAL FORCE             2.943E-07   AT NODE        779   DOF  1
   INSTANCE: SE_SKIN-1                                                                       
 LARGEST INCREMENT OF DISP.         2.749E-02   AT NODE        769   DOF  3
   INSTANCE: SE_SKIN-1                                                                       
 LARGEST CORRECTION TO DISP.       -5.131E-03   AT NODE       2463   DOF  3
   INSTANCE: SE_SKIN-1                                                                       
          FORCE     EQUILIBRIUM NOT ACHIEVED WITHIN TOLERANCE.

 AVERAGE MOMENT                      0.00       TIME AVG. MOMENT      1.000E-02
 ALL MOMENT    RESIDUALS ARE ZERO
 LARGEST INCREMENT OF ROTATION     -4.499E-45   AT NODE          4   DOF  6
   INSTANCE: {assembly node}                                                                 
 LARGEST CORRECTION TO ROTATION    -4.452E-45   AT NODE          4   DOF  4
   INSTANCE: {assembly node}                                                                 
          THERE IS ZERO MOMENT    EVERYWHERE

 AVERAGE CAV. VOL.                  1.333E-02   TIME AVG. CAV. VOL.   1.333E-02
 ALL CAV. VOL. RESIDUALS ARE ZERO
 LARGEST INCREMENT OF H.PRESS.      3.750E-06   AT NODE          3   DOF  8
   INSTANCE: {assembly node}                                                                 
 LARGEST CORRECTION TO H.PRESS.     5.486E-36   AT NODE          3   DOF  8
   INSTANCE: {assembly node}                                                                 
          THE CAV. VOL. EQUILIBRIUM RESPONSE WAS LINEAR IN THIS INCREMENT

 COMPATIBILITY ERRORS:
    TYPE                NUMBER EXCEEDING TOLERANCE  MAXIMUM ERROR        IN ELEMENT
 VOLUMETRIC                          0                4.310E-06               2033
   INSTANCE: SE_SKIN-1                                                                       

  NUMBER OF EQUATIONS =     16280     NUMBER OF RHS =    1
  NUMBER OF FLOATING PT. OPERATIONS =  6.65E+08

     CHECK POINT   START OF SOLVER    

     CHECK POINT  END OF SOLVER       

       ELAPSED USER TIME (SEC)      =  0.25000    
       ELAPSED SYSTEM TIME (SEC)    =  2.00000E-02
       ELAPSED TOTAL CPU TIME (SEC) =  0.27000    
       ELAPSED WALLCLOCK TIME (SEC) =          1

               CONVERGENCE CHECKS FOR EQUILIBRIUM ITERATION     2


 AVERAGE FORCE                      2.119E-06   TIME AVG. FORCE       1.276E-06
 LARGEST RESIDUAL FORCE             7.013E-08   AT NODE        790   DOF  1
   INSTANCE: SE_SKIN-1                                                                       
 LARGEST INCREMENT OF DISP.         2.740E-02   AT NODE        769   DOF  3
   INSTANCE: SE_SKIN-1                                                                       
 LARGEST CORRECTION TO DISP.       -8.265E-05   AT NODE        769   DOF  3
   INSTANCE: SE_SKIN-1                                                                       
          FORCE     EQUILIBRIUM NOT ACHIEVED WITHIN TOLERANCE.

 AVERAGE MOMENT                      0.00       TIME AVG. MOMENT      1.000E-02
 ALL MOMENT    RESIDUALS ARE ZERO
 LARGEST INCREMENT OF ROTATION     -4.522E-45   AT NODE          4   DOF  6
   INSTANCE: {assembly node}                                                                 
 LARGEST CORRECTION TO ROTATION    -3.705E-47   AT NODE          4   DOF  5
   INSTANCE: {assembly node}                                                                 
          THERE IS ZERO MOMENT    EVERYWHERE

 AVERAGE CAV. VOL.                  1.333E-02   TIME AVG. CAV. VOL.   1.333E-02
 ALL CAV. VOL. RESIDUALS ARE ZERO
 LARGEST INCREMENT OF H.PRESS.      3.750E-06   AT NODE          3   DOF  8
   INSTANCE: {assembly node}                                                                 
 LARGEST CORRECTION TO H.PRESS.     5.484E-36   AT NODE          3   DOF  8
   INSTANCE: {assembly node}                                                                 
          THE CAV. VOL. EQUILIBRIUM EQUATIONS HAVE CONVERGED

 COMPATIBILITY ERRORS:
    TYPE                NUMBER EXCEEDING TOLERANCE  MAXIMUM ERROR        IN ELEMENT
 VOLUMETRIC                          0                9.247E-09                561
   INSTANCE: SE_SKIN-1                                                                       

  NUMBER OF EQUATIONS =     16280     NUMBER OF RHS =    1
  NUMBER OF FLOATING PT. OPERATIONS =  6.65E+08

     CHECK POINT   START OF SOLVER    

     CHECK POINT  END OF SOLVER       

       ELAPSED USER TIME (SEC)      =  0.25000    
       ELAPSED SYSTEM TIME (SEC)    =  2.00000E-02
       ELAPSED TOTAL CPU TIME (SEC) =  0.27000    
       ELAPSED WALLCLOCK TIME (SEC) =          0

               CONVERGENCE CHECKS FOR EQUILIBRIUM ITERATION     3


 AVERAGE FORCE                      2.119E-06   TIME AVG. FORCE       1.276E-06
 LARGEST RESIDUAL FORCE            -7.958E-09   AT NODE        760   DOF  2
[...]
 LARGEST CORRECTION TO ROTATION    -8.313E-44   AT NODE          4   DOF  6
   INSTANCE: {assembly node}                                                                 
          THERE IS ZERO MOMENT    EVERYWHERE

 AVERAGE CAV. VOL.                  1.333E-02   TIME AVG. CAV. VOL.   1.333E-02
 ALL CAV. VOL. RESIDUALS ARE ZERO
 LARGEST INCREMENT OF H.PRESS.      2.000E-04   AT NODE          3   DOF  8
   INSTANCE: {assembly node}                                                                 
 LARGEST CORRECTION TO H.PRESS.     4.337E-19   AT NODE          3   DOF  8
   INSTANCE: {assembly node}                                                                 
          THE CAV. VOL. EQUILIBRIUM RESPONSE WAS LINEAR IN THIS INCREMENT

 COMPATIBILITY ERRORS:
    TYPE                NUMBER EXCEEDING TOLERANCE  MAXIMUM ERROR        IN ELEMENT
 VOLUMETRIC                          0                4.542E-07                 84
   INSTANCE: SE_SKIN-1                                                                       

 ITERATION SUMMARY FOR THE INCREMENT:   1 TOTAL ITERATIONS, OF WHICH
   0 ARE SEVERE DISCONTINUITY ITERATIONS AND  1 ARE EQUILIBRIUM ITERATIONS.

 TIME INCREMENT COMPLETED   1.00    ,  FRACTION OF STEP COMPLETED  0.900    
 STEP TIME COMPLETED        9.00    ,  TOTAL TIME COMPLETED         29.0    


  INCREMENT    10 STARTS. ATTEMPT NUMBER  1, TIME INCREMENT   1.00    

  NUMBER OF EQUATIONS =     16280     NUMBER OF RHS =    1
  NUMBER OF FLOATING PT. OPERATIONS =  6.88E+08

     CHECK POINT   START OF SOLVER    

     CHECK POINT  END OF SOLVER       

       ELAPSED USER TIME (SEC)      =  0.20000    
       ELAPSED SYSTEM TIME (SEC)    =  1.00000E-02
       ELAPSED TOTAL CPU TIME (SEC) =  0.21000    
       ELAPSED WALLCLOCK TIME (SEC) =          0

               CONVERGENCE CHECKS FOR EQUILIBRIUM ITERATION     1


 AVERAGE FORCE                      1.315E-04   TIME AVG. FORCE       9.672E-05
 LARGEST RESIDUAL FORCE             3.347E-08   AT NODE       3711   DOF  1
   INSTANCE: SE_SKIN-1                                                                       
 LARGEST INCREMENT OF DISP.         1.949E-02   AT NODE        769   DOF  3
   INSTANCE: SE_SKIN-1                                                                       
 LARGEST CORRECTION TO DISP.       -1.301E-03   AT NODE        769   DOF  3
   INSTANCE: SE_SKIN-1                                                                       
 ESTIMATE OF DISP.    CORRECTION    4.201E-06
 FORCE     EQUILIB. ACCEPTED BASED ON SMALL RESIDUAL AND ESTIMATED CORRECTION

 AVERAGE MOMENT                      0.00       TIME AVG. MOMENT      1.000E-02
 ALL MOMENT    RESIDUALS ARE ZERO
 LARGEST INCREMENT OF ROTATION     -3.585E-43   AT NODE          4   DOF  6
   INSTANCE: {assembly node}                                                                 
 LARGEST CORRECTION TO ROTATION    -1.285E-43   AT NODE          4   DOF  6
   INSTANCE: {assembly node}                                                                 
          THERE IS ZERO MOMENT    EVERYWHERE

 AVERAGE CAV. VOL.                  1.333E-02   TIME AVG. CAV. VOL.   1.333E-02
 ALL CAV. VOL. RESIDUALS ARE ZERO
 LARGEST INCREMENT OF H.PRESS.      2.000E-04   AT NODE          3   DOF  8
   INSTANCE: {assembly node}                                                                 
 LARGEST CORRECTION TO H.PRESS.     3.675E-35   AT NODE          3   DOF  8
   INSTANCE: {assembly node}                                                                 
          THE CAV. VOL. EQUILIBRIUM RESPONSE WAS LINEAR IN THIS INCREMENT

 COMPATIBILITY ERRORS:
    TYPE                NUMBER EXCEEDING TOLERANCE  MAXIMUM ERROR        IN ELEMENT
 VOLUMETRIC                          0                3.428E-07                 84
   INSTANCE: SE_SKIN-1                                                                       

 ITERATION SUMMARY FOR THE INCREMENT:   1 TOTAL ITERATIONS, OF WHICH
   0 ARE SEVERE DISCONTINUITY ITERATIONS AND  1 ARE EQUILIBRIUM ITERATIONS.

 TIME INCREMENT COMPLETED   1.00    ,  FRACTION OF STEP COMPLETED   1.00    
 STEP TIME COMPLETED        10.0    ,  TOTAL TIME COMPLETED         30.0    
1

   Abaqus 2020                                  Date 17-Jan-2022   Time 14:05:32
   For use by PURDUE UNIVERSITY under license from Dassault Systemes or its subsidiary.

                                                                                 
                                                                                 
 STEP    4     INCREMENT     1     STEP TIME    0.00    


                        S T E P       4     S T A T I C   A N A L Y S I S


                                                                                          

     AUTOMATIC TIME CONTROL WITH -
          A SUGGESTED INITIAL TIME INCREMENT OF                 10.0    
          AND A TOTAL TIME PERIOD OF                            10.0    
          THE MINIMUM TIME INCREMENT ALLOWED IS                1.000E-04
          THE MAXIMUM TIME INCREMENT ALLOWED IS                 10.0    

     LINEAR EQUATION SOLVER TYPE         DIRECT SPARSE

 CONVERGENCE TOLERANCE PARAMETERS FOR FORCE    
     CRITERION FOR RESIDUAL FORCE     FOR A NONLINEAR PROBLEM          5.000E-03
     CRITERION FOR DISP.    CORRECTION IN A NONLINEAR PROBLEM          1.000E-02
     INIT. VALUE OF TIME AVG. FORCE     IS TIME AVG. FORCE     IN PREVIOUS STEP
     AVERAGE FORCE     IS TIME AVERAGE FORCE    
     ALTERNATE CRIT. FOR RESIDUAL FORCE     FOR A NONLINEAR PROBLEM    2.000E-02
     CRITERION FOR ZERO FORCE     RELATIVE TO TIME AVRG. FORCE         1.000E-05
     CRITERION FOR RESIDUAL FORCE     WHEN THERE IS ZERO FLUX          1.000E-05
     CRITERION FOR DISP.    CORRECTION WHEN THERE IS ZERO FLUX         1.000E-03
     CRITERION FOR RESIDUAL FORCE     FOR A LINEAR INCREMENT           1.000E-08
     FIELD CONVERSION RATIO                                             1.00    
     CRITERION FOR ZERO FORCE     REL. TO TIME AVRG. MAX. FORCE        1.000E-05
     CRITERION FOR ZERO DISP.    RELATIVE TO CHARACTERISTIC LENGTH     1.000E-08

 CONVERGENCE TOLERANCE PARAMETERS FOR MOMENT   
     CRITERION FOR RESIDUAL MOMENT    FOR A NONLINEAR PROBLEM          5.000E-03
     CRITERION FOR ROTATION CORRECTION IN A NONLINEAR PROBLEM          1.000E-02
     INIT. VALUE OF TIME AVG. MOMENT    IS TIME AVG. MOMENT    IN PREVIOUS STEP
     AVERAGE MOMENT    IS TIME AVERAGE MOMENT   
     ALTERNATE CRIT. FOR RESIDUAL MOMENT    FOR A NONLINEAR PROBLEM    2.000E-02
     CRITERION FOR ZERO MOMENT    RELATIVE TO TIME AVRG. MOMENT        1.000E-05
     CRITERION FOR RESIDUAL MOMENT    WHEN THERE IS ZERO FLUX          1.000E-05
     CRITERION FOR ROTATION CORRECTION WHEN THERE IS ZERO FLUX         1.000E-03
     CRITERION FOR RESIDUAL MOMENT    FOR A LINEAR INCREMENT           1.000E-08
     FIELD CONVERSION RATIO                                             1.00    
     CRITERION FOR ZERO MOMENT    REL. TO TIME AVRG. MAX. MOMENT       1.000E-05

 CONVERGENCE TOLERANCE PARAMETERS FOR CAV. VOL.
     CRITERION FOR RESIDUAL CAV. VOL. FOR A NONLINEAR PROBLEM          5.000E-03
     CRITERION FOR H.PRESS. CORRECTION IN A NONLINEAR PROBLEM          1.000E-02
     INIT. VALUE OF TIME AVG. CAV. VOL. IS TIME AVG. CAV. VOL. IN PREVIOUS STEP
     AVERAGE CAV. VOL. IS TIME AVERAGE CAV. VOL.
     ALTERNATE CRIT. FOR RESIDUAL CAV. VOL. FOR A NONLINEAR PROBLEM    2.000E-02
     CRITERION FOR ZERO CAV. VOL. RELATIVE TO TIME AVRG. CAV. VOL.     1.000E-05
     CRITERION FOR RESIDUAL CAV. VOL. WHEN THERE IS ZERO FLUX          1.000E-05
     CRITERION FOR H.PRESS. CORRECTION WHEN THERE IS ZERO FLUX         1.000E-03
     CRITERION FOR RESIDUAL CAV. VOL. FOR A LINEAR INCREMENT           1.000E-08
     FIELD CONVERSION RATIO                                             1.00    
     CRITERION FOR ZERO CAV. VOL. REL. TO TIME AVRG. MAX. CAV. VOL.    1.000E-05

     VOLUMETRIC STRAIN COMPATIBILITY TOLERANCE FOR HYBRID SOLIDS       1.000E-05
     AXIAL STRAIN COMPATIBILITY TOLERANCE FOR HYBRID BEAMS             1.000E-05
     TRANS. SHEAR STRAIN COMPATIBILITY TOLERANCE FOR HYBRID BEAMS      1.000E-05
     SOFT CONTACT CONSTRAINT COMPATIBILITY TOLERANCE FOR P>P0          5.000E-03
     SOFT CONTACT CONSTRAINT COMPATIBILITY TOLERANCE FOR P=0.0         0.100    
     CONTACT FORCE ERROR TOLERANCE FOR CONVERT SDI=YES                 1.00    
     DISPLACEMENT COMPATIBILITY TOLERANCE FOR DCOUP ELEMENTS           1.000E-05
     ROTATION COMPATIBILITY TOLERANCE FOR DCOUP ELEMENTS               1.000E-05

 EQUILIBRIUM WILL BE CHECKED FOR SEVERE DISCONTINUITY ITERATIONS

 TIME INCREMENTATION CONTROL PARAMETERS:
     FIRST EQUILIBRIUM ITERATION FOR CONSECUTIVE DIVERGENCE CHECK              4
     EQUILIBRIUM ITERATION AT WHICH LOG. CONVERGENCE RATE CHECK BEGINS         8
     EQUILIBRIUM ITERATION AFTER WHICH ALTERNATE RESIDUAL IS USED              9
     MAXIMUM EQUILIBRIUM ITERATIONS ALLOWED                                   16
     EQUILIBRIUM ITERATION COUNT FOR CUT-BACK IN NEXT INCREMENT               10
     MAXIMUM EQUILIB. ITERS IN TWO INCREMENTS FOR TIME INCREMENT INCREASE      4
     MAXIMUM ITERATIONS FOR SEVERE DISCONTINUITIES                            50
     MAXIMUM ATTEMPTS ALLOWED IN AN INCREMENT                                  5
     MAXIMUM DISCON. ITERS IN TWO INCREMENTS FOR TIME INCREMENT INCREASE      50
     MAXIMUM CONTACT AUGMENTATIONS FOR *SURFACE BEHAVIOR,AUGMENTED LAGRANGE   50
     CUT-BACK FACTOR AFTER DIVERGENCE                                 0.2500    
     CUT-BACK FACTOR FOR TOO SLOW CONVERGENCE                         0.5000    
     CUT-BACK FACTOR AFTER TOO MANY EQUILIBRIUM ITERATIONS            0.7500    
     CUT-BACK FACTOR AFTER TOO MANY SEVERE DISCONTINUITY ITERATIONS   0.2500    
     CUT-BACK FACTOR AFTER PROBLEMS IN ELEMENT ASSEMBLY               0.2500    
     INCREASE FACTOR AFTER TWO INCREMENTS THAT CONVERGE QUICKLY        1.500    
     MAX. TIME INCREMENT INCREASE FACTOR ALLOWED                       1.500    
     MAX. TIME INCREMENT INCREASE FACTOR ALLOWED (DYNAMICS)            1.250    
     MAX. TIME INCREMENT INCREASE FACTOR ALLOWED (DIFFUSION)           2.000    
     MINIMUM TIME INCREMENT RATIO FOR EXTRAPOLATION TO OCCUR          0.1000    
     MAX. RATIO OF TIME INCREMENT TO STABILITY LIMIT                   1.000    
     FRACTION OF STABILITY LIMIT FOR NEW TIME INCREMENT               0.9500    
     TIME INCREMENT INCREASE FACTOR BEFORE A TIME POINT                1.000    
     GLOBAL STABILIZATION CONTROL IS NOT USED

          PRINT OF INCREMENT NUMBER, TIME, ETC., EVERY    1  INCREMENTS

     THE MAXIMUM NUMBER OF INCREMENTS IN THIS STEP IS                     100

          LARGE DISPLACEMENT THEORY WILL BE USED

     LINEAR EXTRAPOLATION WILL BE USED

     CHARACTERISTIC ELEMENT LENGTH     0.237    

     DETAILS REGARDING ACTUAL SOLUTION WAVEFRONT REQUESTED

     DETAILED OUTPUT OF DIAGNOSTICS TO DATABASE REQUESTED

     PRINT OF INCREMENT NUMBER, TIME, ETC., TO THE MESSAGE FILE EVERY     1  INCREMENTS

     COLLECTING STEP CONSTRAINT INFORMATION FOR OVERCONSTRAINT CHECKS


  INCREMENT     1 STARTS. ATTEMPT NUMBER  1, TIME INCREMENT   10.0    

  NUMBER OF EQUATIONS =     16280     NUMBER OF RHS =    1
  NUMBER OF FLOATING PT. OPERATIONS =  6.87E+08

     CHECK POINT   START OF SOLVER    

     CHECK POINT  END OF SOLVER       

       ELAPSED USER TIME (SEC)      =  0.20000    
       ELAPSED SYSTEM TIME (SEC)    =  3.00000E-02
       ELAPSED TOTAL CPU TIME (SEC) =  0.23000    
       ELAPSED WALLCLOCK TIME (SEC) =          0

               CONVERGENCE CHECKS FOR EQUILIBRIUM ITERATION     1


 AVERAGE FORCE                      2.074E-04   TIME AVG. FORCE       2.074E-04
 LARGEST RESIDUAL FORCE            -5.406E-04   AT NODE       1237   DOF  3
   INSTANCE: SE_SKIN-1                                                                       
 LARGEST INCREMENT OF DISP.         0.189       AT NODE        769   DOF  3
   INSTANCE: SE_SKIN-1                                                                       
 LARGEST CORRECTION TO DISP.        0.189       AT NODE        769   DOF  3
   INSTANCE: SE_SKIN-1                                                                       
          FORCE     EQUILIBRIUM NOT ACHIEVED WITHIN TOLERANCE.

 AVERAGE MOMENT                      0.00       TIME AVG. MOMENT      1.000E-02
 ALL MOMENT    RESIDUALS ARE ZERO
 LARGEST INCREMENT OF ROTATION     -1.111E-43   AT NODE          4   DOF  6
   INSTANCE: {assembly node}                                                                 
 LARGEST CORRECTION TO ROTATION    -1.111E-43   AT NODE          4   DOF  6
   INSTANCE: {assembly node}                                                                 
          THERE IS ZERO MOMENT    EVERYWHERE

 AVERAGE CAV. VOL.                  1.333E-02   TIME AVG. CAV. VOL.   1.333E-02
 ALL CAV. VOL. RESIDUALS ARE ZERO
 LARGEST INCREMENT OF H.PRESS.      2.000E-03   AT NODE          3   DOF  8
   INSTANCE: {assembly node}                                                                 
 LARGEST CORRECTION TO H.PRESS.     2.000E-03   AT NODE          3   DOF  8
   INSTANCE: {assembly node}                                                                 
          THE CAV. VOL. EQUILIBRIUM RESPONSE WAS LINEAR IN THIS INCREMENT

 COMPATIBILITY ERRORS:
    TYPE                NUMBER EXCEEDING TOLERANCE  MAXIMUM ERROR        IN ELEMENT
 VOLUMETRIC                       2746                6.756E-03                 53
   INSTANCE: SE_SKIN-1                                                                       

  NUMBER OF EQUATIONS =     16280     NUMBER OF RHS =    1
  NUMBER OF FLOATING PT. OPERATIONS =  6.88E+08

     CHECK POINT   START OF SOLVER    

     CHECK POINT  END OF SOLVER       

       ELAPSED USER TIME (SEC)      =  0.21000    
       ELAPSED SYSTEM TIME (SEC)    =  1.00000E-02
       ELAPSED TOTAL CPU TIME (SEC) =  0.22000    
       ELAPSED WALLCLOCK TIME (SEC) =          0

               CONVERGENCE CHECKS FOR EQUILIBRIUM ITERATION     2


 AVERAGE FORCE                      1.994E-04   TIME AVG. FORCE       1.994E-04
 LARGEST RESIDUAL FORCE            -2.801E-05   AT NODE       1237   DOF  3
   INSTANCE: SE_SKIN-1                                                                       
 LARGEST INCREMENT OF DISP.         0.149       AT NODE        769   DOF  3
   INSTANCE: SE_SKIN-1                                                                       
 LARGEST CORRECTION TO DISP.       -3.952E-02   AT NODE        769   DOF  3
   INSTANCE: SE_SKIN-1                                                                       
          FORCE     EQUILIBRIUM NOT ACHIEVED WITHIN TOLERANCE.

 AVERAGE MOMENT                      0.00       TIME AVG. MOMENT      1.000E-02
 ALL MOMENT    RESIDUALS ARE ZERO
 LARGEST INCREMENT OF ROTATION     -6.375E-42   AT NODE          4   DOF  6
   INSTANCE: {assembly node}                                                                 
 LARGEST CORRECTION TO ROTATION    -6.264E-42   AT NODE          4   DOF  6
   INSTANCE: {assembly node}                                                                 
          THERE IS ZERO MOMENT    EVERYWHERE

 AVERAGE CAV. VOL.                  1.333E-02   TIME AVG. CAV. VOL.   1.333E-02
 ALL CAV. VOL. RESIDUALS ARE ZERO
 LARGEST INCREMENT OF H.PRESS.      2.000E-03   AT NODE          3   DOF  8
   INSTANCE: {assembly node}                                                                 
 LARGEST CORRECTION TO H.PRESS.     4.185E-35   AT NODE          3   DOF  8
   INSTANCE: {assembly node}                                                                 
          THE CAV. VOL. EQUILIBRIUM EQUATIONS HAVE CONVERGED

 COMPATIBILITY ERRORS:
    TYPE                NUMBER EXCEEDING TOLERANCE  MAXIMUM ERROR        IN ELEMENT
 VOLUMETRIC                       1931                3.122E-04                941
   INSTANCE: SE_SKIN-1                                                                       

  NUMBER OF EQUATIONS =     16280     NUMBER OF RHS =    1
  NUMBER OF FLOATING PT. OPERATIONS =  6.92E+08

     CHECK POINT   START OF SOLVER    

     CHECK POINT  END OF SOLVER       

       ELAPSED USER TIME (SEC)      =  0.20000    
       ELAPSED SYSTEM TIME (SEC)    =  1.00000E-02
       ELAPSED TOTAL CPU TIME (SEC) =  0.21000    
       ELAPSED WALLCLOCK TIME (SEC) =          0

               CONVERGENCE CHECKS FOR EQUILIBRIUM ITERATION     3


 AVERAGE FORCE                      2.044E-04   TIME AVG. FORCE       2.044E-04
 LARGEST RESIDUAL FORCE             2.014E-07   AT NODE       1096   DOF  1
   INSTANCE: SE_SKIN-1                                                                       
 LARGEST INCREMENT OF DISP.         0.148       AT NODE        769   DOF  3
   INSTANCE: SE_SKIN-1                                                                       
 LARGEST CORRECTION TO DISP.       -1.144E-03   AT NODE        769   DOF  3
   INSTANCE: SE_SKIN-1                                                                       
          THE FORCE     EQUILIBRIUM EQUATIONS HAVE CONVERGED

 AVERAGE MOMENT                      0.00       TIME AVG. MOMENT      1.000E-02
 ALL MOMENT    RESIDUALS ARE ZERO
 LARGEST INCREMENT OF ROTATION     -6.382E-42   AT NODE          4   DOF  6
   INSTANCE: {assembly node}                                                                 
 LARGEST CORRECTION TO ROTATION    -6.952E-45   AT NODE          4   DOF  6
   INSTANCE: {assembly node}                                                                 
          THERE IS ZERO MOMENT    EVERYWHERE

 AVERAGE CAV. VOL.                  1.333E-02   TIME AVG. CAV. VOL.   1.333E-02
 ALL CAV. VOL. RESIDUALS ARE ZERO
 LARGEST INCREMENT OF H.PRESS.      2.000E-03   AT NODE          3   DOF  8
   INSTANCE: {assembly node}                                                                 
 LARGEST CORRECTION TO H.PRESS.     4.181E-35   AT NODE          3   DOF  8
   INSTANCE: {assembly node}                                                                 
          THE CAV. VOL. EQUILIBRIUM EQUATIONS HAVE CONVERGED

 COMPATIBILITY ERRORS:
    TYPE                NUMBER EXCEEDING TOLERANCE  MAXIMUM ERROR        IN ELEMENT
 VOLUMETRIC                          0                4.772E-07               2124
   INSTANCE: SE_SKIN-1                                                                       

 ITERATION SUMMARY FOR THE INCREMENT:   3 TOTAL ITERATIONS, OF WHICH
   0 ARE SEVERE DISCONTINUITY ITERATIONS AND  3 ARE EQUILIBRIUM ITERATIONS.

 TIME INCREMENT COMPLETED   10.0    ,  FRACTION OF STEP COMPLETED   1.00    
 STEP TIME COMPLETED        10.0    ,  TOTAL TIME COMPLETED         40.0    


          THE ANALYSIS HAS BEEN COMPLETED



     ANALYSIS SUMMARY:
     TOTAL OF         37  INCREMENTS
                       1  CUTBACKS IN AUTOMATIC INCREMENTATION
                      93  ITERATIONS INCLUDING CONTACT ITERATIONS IF PRESENT
                      93  PASSES THROUGH THE EQUATION SOLVER OF WHICH 
                      93  INVOLVE MATRIX DECOMPOSITION, INCLUDING
                       0  DECOMPOSITION(S) OF THE MASS MATRIX
                       1  REORDERING OF EQUATIONS TO MINIMIZE WAVEFRONT
                       0  ADDITIONAL RESIDUAL EVALUATIONS FOR LINE SEARCHES
                       0  ADDITIONAL OPERATOR EVALUATIONS FOR LINE SEARCHES
                    5393  WARNING MESSAGES DURING USER INPUT PROCESSING
                       0  WARNING MESSAGES DURING ANALYSIS
                       0  ANALYSIS WARNINGS ARE NUMERICAL PROBLEM MESSAGES
                       0  ANALYSIS WARNINGS ARE NEGATIVE EIGENVALUE MESSAGES
                       0  ERROR MESSAGES



     JOB TIME SUMMARY
       USER TIME (SEC)      =   386.83    
       SYSTEM TIME (SEC)    =   4.7200    
       TOTAL CPU TIME (SEC) =   391.55    
       WALLCLOCK TIME (SEC) =        400
