 Abaqus/Standard 2020                  DATE 17-Jan-2022 TIME 13:59:27
 SUMMARY OF JOB INFORMATION:
 STEP  INC ATT SEVERE EQUIL TOTAL  TOTAL      STEP       INC OF       DOF    IF
               DISCON ITERS ITERS  TIME/    TIME/LPF    TIME/LPF    MONITOR RIKS
               ITERS               FREQ
   1     1   1U    0     5     5  0.00       0.00       1.000     
   1     1   2     0     7     7  0.250      0.250      0.2500    
   1     2   1     0     5     5  0.500      0.500      0.2500    
   1     3   1     0     5     5  0.750      0.750      0.2500    
   1     4   1     0     3     3  1.00       1.00       0.2500    
   1     5   1     0     2     2  1.25       1.25       0.2500    
   1     6   1     0     4     4  1.62       1.62       0.3750    
   1     7   1     0     5     5  2.19       2.19       0.5625    
   1     8   1     0     3     3  2.75       2.75       0.5625    
   1     9   1     0     3     3  3.31       3.31       0.5625    
   1    10   1     0     3     3  4.16       4.16       0.8438    
   1    11   1     0     2     2  5.16       5.16       1.000     
   1    12   1     0     2     2  6.16       6.16       1.000     
   1    13   1     0     2     2  7.16       7.16       1.000     
   1    14   1     0     2     2  8.16       8.16       1.000     
   1    15   1     0     2     2  9.16       9.16       1.000     
   1    16   1     0     2     2  10.0       10.0       0.8438    
   2     1   1     0     4     4  11.0       1.00       1.000     
   2     2   1     0     3     3  12.0       2.00       1.000     
   2     3   1     0     2     2  13.0       3.00       1.000     
   2     4   1     0     2     2  14.0       4.00       1.000     
   2     5   1     0     2     2  15.0       5.00       1.000     
   2     6   1     0     2     2  16.0       6.00       1.000     
   2     7   1     0     2     2  17.0       7.00       1.000     
   2     8   1     0     1     1  18.0       8.00       1.000     
   2     9   1     0     1     1  19.0       9.00       1.000     
   2    10   1     0     1     1  20.0       10.0       1.000     
   3     1   1     0     3     3  21.0       1.00       1.000     
   3     2   1     0     2     2  22.0       2.00       1.000     
   3     3   1     0     1     1  23.0       3.00       1.000     
   3     4   1     0     1     1  24.0       4.00       1.000     
   3     5   1     0     1     1  25.0       5.00       1.000     
   3     6   1     0     1     1  26.0       6.00       1.000     
   3     7   1     0     1     1  27.0       7.00       1.000     
   3     8   1     0     1     1  28.0       8.00       1.000     
   3     9   1     0     1     1  29.0       9.00       1.000     
   3    10   1     0     1     1  30.0       10.0       1.000     
   4     1   1     0     3     3  40.0       10.0       10.00     
                          
 THE ANALYSIS HAS COMPLETED SUCCESSFULLY
