 Abaqus/Standard 2020                  DATE 21-Jan-2022 TIME 09:18:58
 SUMMARY OF JOB INFORMATION:
 STEP  INC ATT SEVERE EQUIL TOTAL  TOTAL      STEP       INC OF       DOF    IF
               DISCON ITERS ITERS  TIME/    TIME/LPF    TIME/LPF    MONITOR RIKS
               ITERS               FREQ
   1     1   1     0     8     8  0.100      0.100      0.1000    
   1     2   1     0     5     5  0.200      0.200      0.1000    
   1     3   1     0     4     4  0.300      0.300      0.1000    
   1     4   1     0     4     4  0.400      0.400      0.1000    
   1     5   1     0     4     4  0.550      0.550      0.1500    
   1     6   1     0     5     5  0.775      0.775      0.2250    
   1     7   1     0     4     4  1.00       1.00       0.2250    
   1     8   1     0     5     5  1.23       1.23       0.2250    
   1     9   1     0     4     4  1.45       1.45       0.2250    
   1    10   1     0     4     4  1.68       1.68       0.2250    
   1    11   1     0     4     4  2.01       2.01       0.3375    
   1    12   1     0     5     5  2.52       2.52       0.5063    
   1    13   1     0     5     5  3.03       3.03       0.5063    
   1    14   1     0     5     5  3.53       3.53       0.5063    
   1    15   1     0     4     4  4.04       4.04       0.5063    
   1    16   1     0     5     5  4.54       4.54       0.5063    
   1    17   1     0     4     4  5.05       5.05       0.5063    
   1    18   1     0     5     5  5.56       5.56       0.5063    
   1    19   1     0     5     5  6.06       6.06       0.5063    
   1    20   1     0     6     6  6.57       6.57       0.5063    
   1    21   1     0     6     6  7.07       7.07       0.5063    
   1    22   1     0     6     6  7.58       7.58       0.5063    
   1    23   1     0     7     7  8.09       8.09       0.5063    
   1    24   1     0     8     8  8.59       8.59       0.5063    
   1    25   1     0     8     8  9.10       9.10       0.5063    
   1    26   1     0    10    10  9.61       9.61       0.5063    
   1    27   1     0    10    10  10.0       10.0       0.3938    
                          
 THE ANALYSIS HAS COMPLETED SUCCESSFULLY
