1

   Abaqus 2020                                  Date 21-Jan-2022   Time 09:18:52
   For use by PURDUE UNIVERSITY under license from Dassault Systemes or its subsidiary.

                                                                                 
                                                                                 
 STEP    1     INCREMENT     1     STEP TIME    0.00    


                        S T E P       1     S T A T I C   A N A L Y S I S


                                                                                          

     AUTOMATIC TIME CONTROL WITH -
          A SUGGESTED INITIAL TIME INCREMENT OF                0.100    
          AND A TOTAL TIME PERIOD OF                            10.0    
          THE MINIMUM TIME INCREMENT ALLOWED IS                1.000E-04
          THE MAXIMUM TIME INCREMENT ALLOWED IS                 10.0    

     LINEAR EQUATION SOLVER TYPE         DIRECT SPARSE

 CONVERGENCE TOLERANCE PARAMETERS FOR FORCE    
     CRITERION FOR RESIDUAL FORCE     FOR A NONLINEAR PROBLEM          5.000E-03
     CRITERION FOR DISP.    CORRECTION IN A NONLINEAR PROBLEM          1.000E-02
     INITIAL VALUE OF TIME AVERAGE FORCE                               1.000E-02
     AVERAGE FORCE     IS TIME AVERAGE FORCE    
     ALTERNATE CRIT. FOR RESIDUAL FORCE     FOR A NONLINEAR PROBLEM    2.000E-02
     CRITERION FOR ZERO FORCE     RELATIVE TO TIME AVRG. FORCE         1.000E-05
     CRITERION FOR RESIDUAL FORCE     WHEN THERE IS ZERO FLUX          1.000E-05
     CRITERION FOR DISP.    CORRECTION WHEN THERE IS ZERO FLUX         1.000E-03
     CRITERION FOR RESIDUAL FORCE     FOR A LINEAR INCREMENT           1.000E-08
     FIELD CONVERSION RATIO                                             1.00    
     CRITERION FOR ZERO FORCE     REL. TO TIME AVRG. MAX. FORCE        1.000E-05
     CRITERION FOR ZERO DISP.    RELATIVE TO CHARACTERISTIC LENGTH     1.000E-08

 CONVERGENCE TOLERANCE PARAMETERS FOR MOMENT   
     CRITERION FOR RESIDUAL MOMENT    FOR A NONLINEAR PROBLEM          5.000E-03
     CRITERION FOR ROTATION CORRECTION IN A NONLINEAR PROBLEM          1.000E-02
     INITIAL VALUE OF TIME AVERAGE MOMENT                              1.000E-02
     AVERAGE MOMENT    IS TIME AVERAGE MOMENT   
     ALTERNATE CRIT. FOR RESIDUAL MOMENT    FOR A NONLINEAR PROBLEM    2.000E-02
     CRITERION FOR ZERO MOMENT    RELATIVE TO TIME AVRG. MOMENT        1.000E-05
     CRITERION FOR RESIDUAL MOMENT    WHEN THERE IS ZERO FLUX          1.000E-05
     CRITERION FOR ROTATION CORRECTION WHEN THERE IS ZERO FLUX         1.000E-03
     CRITERION FOR RESIDUAL MOMENT    FOR A LINEAR INCREMENT           1.000E-08
     FIELD CONVERSION RATIO                                             1.00    
     CRITERION FOR ZERO MOMENT    REL. TO TIME AVRG. MAX. MOMENT       1.000E-05

     VOLUMETRIC STRAIN COMPATIBILITY TOLERANCE FOR HYBRID SOLIDS       1.000E-05
     AXIAL STRAIN COMPATIBILITY TOLERANCE FOR HYBRID BEAMS             1.000E-05
     TRANS. SHEAR STRAIN COMPATIBILITY TOLERANCE FOR HYBRID BEAMS      1.000E-05
     SOFT CONTACT CONSTRAINT COMPATIBILITY TOLERANCE FOR P>P0          5.000E-03
     SOFT CONTACT CONSTRAINT COMPATIBILITY TOLERANCE FOR P=0.0         0.100    
     CONTACT FORCE ERROR TOLERANCE FOR CONVERT SDI=YES                 1.00    
     DISPLACEMENT COMPATIBILITY TOLERANCE FOR DCOUP ELEMENTS           1.000E-05
     ROTATION COMPATIBILITY TOLERANCE FOR DCOUP ELEMENTS               1.000E-05

 EQUILIBRIUM WILL BE CHECKED FOR SEVERE DISCONTINUITY ITERATIONS

 TIME INCREMENTATION CONTROL PARAMETERS:
     FIRST EQUILIBRIUM ITERATION FOR CONSECUTIVE DIVERGENCE CHECK              4
     EQUILIBRIUM ITERATION AT WHICH LOG. CONVERGENCE RATE CHECK BEGINS         8
     EQUILIBRIUM ITERATION AFTER WHICH ALTERNATE RESIDUAL IS USED              9
     MAXIMUM EQUILIBRIUM ITERATIONS ALLOWED                                   16
     EQUILIBRIUM ITERATION COUNT FOR CUT-BACK IN NEXT INCREMENT               10
     MAXIMUM EQUILIB. ITERS IN TWO INCREMENTS FOR TIME INCREMENT INCREASE      4
     MAXIMUM ITERATIONS FOR SEVERE DISCONTINUITIES                            50
     MAXIMUM ATTEMPTS ALLOWED IN AN INCREMENT                                  5
     MAXIMUM DISCON. ITERS IN TWO INCREMENTS FOR TIME INCREMENT INCREASE      50
     MAXIMUM CONTACT AUGMENTATIONS FOR *SURFACE BEHAVIOR,AUGMENTED LAGRANGE   50
     CUT-BACK FACTOR AFTER DIVERGENCE                                 0.2500    
     CUT-BACK FACTOR FOR TOO SLOW CONVERGENCE                         0.5000    
     CUT-BACK FACTOR AFTER TOO MANY EQUILIBRIUM ITERATIONS            0.7500    
     CUT-BACK FACTOR AFTER TOO MANY SEVERE DISCONTINUITY ITERATIONS   0.2500    
     CUT-BACK FACTOR AFTER PROBLEMS IN ELEMENT ASSEMBLY               0.2500    
     INCREASE FACTOR AFTER TWO INCREMENTS THAT CONVERGE QUICKLY        1.500    
     MAX. TIME INCREMENT INCREASE FACTOR ALLOWED                       1.500    
     MAX. TIME INCREMENT INCREASE FACTOR ALLOWED (DYNAMICS)            1.250    
     MAX. TIME INCREMENT INCREASE FACTOR ALLOWED (DIFFUSION)           2.000    
     MINIMUM TIME INCREMENT RATIO FOR EXTRAPOLATION TO OCCUR          0.1000    
     MAX. RATIO OF TIME INCREMENT TO STABILITY LIMIT                   1.000    
     FRACTION OF STABILITY LIMIT FOR NEW TIME INCREMENT               0.9500    
     TIME INCREMENT INCREASE FACTOR BEFORE A TIME POINT                1.000    
     GLOBAL STABILIZATION CONTROL IS NOT USED

          PRINT OF INCREMENT NUMBER, TIME, ETC., EVERY    1  INCREMENTS

     THE MAXIMUM NUMBER OF INCREMENTS IN THIS STEP IS                     100

          LARGE DISPLACEMENT THEORY WILL BE USED

     LINEAR EXTRAPOLATION WILL BE USED

     CHARACTERISTIC ELEMENT LENGTH      3.07    

     DETAILS REGARDING ACTUAL SOLUTION WAVEFRONT REQUESTED

     DETAILED OUTPUT OF DIAGNOSTICS TO DATABASE REQUESTED

     PRINT OF INCREMENT NUMBER, TIME, ETC., TO THE MESSAGE FILE EVERY     1  INCREMENTS

     COLLECTING MODEL CONSTRAINT INFORMATION FOR OVERCONSTRAINT CHECKS

     COLLECTING STEP CONSTRAINT INFORMATION FOR OVERCONSTRAINT CHECKS


  INCREMENT     1 STARTS. ATTEMPT NUMBER  1, TIME INCREMENT  0.100    

  NUMBER OF EQUATIONS =      4545     NUMBER OF RHS =    1
  NUMBER OF FLOATING PT. OPERATIONS =  1.18E+08

     CHECK POINT   START OF SOLVER    

     CHECK POINT  END OF SOLVER       

       ELAPSED USER TIME (SEC)      =  0.10000    
       ELAPSED SYSTEM TIME (SEC)    =  2.00000E-02
       ELAPSED TOTAL CPU TIME (SEC) =  0.12000    
       ELAPSED WALLCLOCK TIME (SEC) =          1

               CONVERGENCE CHECKS FOR EQUILIBRIUM ITERATION     1


 AVERAGE FORCE                      9.060E-05   TIME AVG. FORCE       9.060E-05
 LARGEST RESIDUAL FORCE            -3.472E-03   AT NODE          1   DOF  2
   INSTANCE:                                                                                 
 LARGEST INCREMENT OF DISP.        -0.416       AT NODE         18   DOF  3
   INSTANCE: PART-1-1                                                                        
 LARGEST CORRECTION TO DISP.       -0.416       AT NODE         18   DOF  3
   INSTANCE: PART-1-1                                                                        
          FORCE     EQUILIBRIUM NOT ACHIEVED WITHIN TOLERANCE.

 AVERAGE MOMENT                      0.00       TIME AVG. MOMENT      3.072E-02
                                                (FROM FORCE     FIELD)
 LARGEST RESIDUAL MOMENT           -3.257E-03   AT NODE          1   DOF  5
   INSTANCE:                                                                                 
 LARGEST INCREMENT OF ROTATION      1.000E-02   AT NODE          1   DOF  4
   INSTANCE: {assembly node}                                                                 
 LARGEST CORRECTION TO ROTATION     1.000E-02   AT NODE          1   DOF  4
   INSTANCE: {assembly node}                                                                 
          THE MOMENT    IS ZERO EVERYWHERE BUT THE MOMENT    RESIDUAL OR
          THE ROTATION CORRECTION IS NON-ZERO

 COMPATIBILITY ERRORS:
    TYPE                NUMBER EXCEEDING TOLERANCE  MAXIMUM ERROR        IN ELEMENT
 VOLUMETRIC                        597                3.186E-04                 18
   INSTANCE: PART-1-1                                                                        

  NUMBER OF EQUATIONS =      4545     NUMBER OF RHS =    1
  NUMBER OF FLOATING PT. OPERATIONS =  1.18E+08

     CHECK POINT   START OF SOLVER    

     CHECK POINT  END OF SOLVER       

       ELAPSED USER TIME (SEC)      =  6.00000E-02
       ELAPSED SYSTEM TIME (SEC)    =  1.00000E-02
       ELAPSED TOTAL CPU TIME (SEC) =  7.00000E-02
       ELAPSED WALLCLOCK TIME (SEC) =          0

               CONVERGENCE CHECKS FOR EQUILIBRIUM ITERATION     2


 AVERAGE FORCE                      1.824E-05   TIME AVG. FORCE       1.824E-05
 LARGEST RESIDUAL FORCE            -1.727E-03   AT NODE          1   DOF  2
   INSTANCE:                                                                                 
 LARGEST INCREMENT OF DISP.        -0.418       AT NODE         18   DOF  3
   INSTANCE: PART-1-1                                                                        
 LARGEST CORRECTION TO DISP.        1.102E-02   AT NODE        828   DOF  3
   INSTANCE: PART-1-1                                                                        
          FORCE     EQUILIBRIUM NOT ACHIEVED WITHIN TOLERANCE.

 AVERAGE MOMENT                      0.00       TIME AVG. MOMENT      3.072E-02
                                                (FROM FORCE     FIELD)
 LARGEST RESIDUAL MOMENT           -4.105E-03   AT NODE          1   DOF  6
   INSTANCE:                                                                                 
 LARGEST INCREMENT OF ROTATION      1.000E-02   AT NODE          1   DOF  4
   INSTANCE: {assembly node}                                                                 
 LARGEST CORRECTION TO ROTATION    -6.843E-05   AT NODE          1   DOF  5
   INSTANCE: {assembly node}                                                                 
          THE MOMENT    IS ZERO EVERYWHERE BUT THE MOMENT    RESIDUAL OR
          THE ROTATION CORRECTION IS NON-ZERO

 COMPATIBILITY ERRORS:
    TYPE                NUMBER EXCEEDING TOLERANCE  MAXIMUM ERROR        IN ELEMENT
 VOLUMETRIC                          0                2.113E-06                289
   INSTANCE: PART-1-1                                                                        

  NUMBER OF EQUATIONS =      4545     NUMBER OF RHS =    1
  NUMBER OF FLOATING PT. OPERATIONS =  1.18E+08

     CHECK POINT   START OF SOLVER    

     CHECK POINT  END OF SOLVER       

       ELAPSED USER TIME (SEC)      =  6.00000E-02
       ELAPSED SYSTEM TIME (SEC)    =  1.00000E-02
       ELAPSED TOTAL CPU TIME (SEC) =  7.00000E-02
       ELAPSED WALLCLOCK TIME (SEC) =          0

               CONVERGENCE CHECKS FOR EQUILIBRIUM ITERATION     3


 AVERAGE FORCE                      1.443E-05   TIME AVG. FORCE       1.443E-05
 LARGEST RESIDUAL FORCE            -5.531E-04   AT NODE          1   DOF  2
   INSTANCE:                                                                                 
 LARGEST INCREMENT OF DISP.        -0.373       AT NODE         18   DOF  3
   INSTANCE: PART-1-1                                                                        
 LARGEST CORRECTION TO DISP.        4.460E-02   AT NODE          1   DOF  3
   INSTANCE: PART-1-1                                                                        
          FORCE     EQUILIBRIUM NOT ACHIEVED WITHIN TOLERANCE.

 AVERAGE MOMENT                      0.00       TIME AVG. MOMENT      3.072E-02
                                                (FROM FORCE     FIELD)
 LARGEST RESIDUAL MOMENT           -3.414E-03   AT NODE          1   DOF  6
   INSTANCE:                                                                                 
 LARGEST INCREMENT OF ROTATION      1.000E-02   AT NODE          1   DOF  4
   INSTANCE: {assembly node}                                                                 
 LARGEST CORRECTION TO ROTATION    -1.753E-03   AT NODE          1   DOF  5
   INSTANCE: {assembly node}                                                                 
          THE MOMENT    IS ZERO EVERYWHERE BUT THE MOMENT    RESIDUAL OR
          THE ROTATION CORRECTION IS NON-ZERO

 COMPATIBILITY ERRORS:
    TYPE                NUMBER EXCEEDING TOLERANCE  MAXIMUM ERROR        IN ELEMENT
 VOLUMETRIC                          0                3.870E-06                 91
   INSTANCE: PART-1-1                                                                        

  NUMBER OF EQUATIONS =      4545     NUMBER OF RHS =    1
  NUMBER OF FLOATING PT. OPERATIONS =  1.18E+08

     CHECK POINT   START OF SOLVER    

     CHECK POINT  END OF SOLVER       

       ELAPSED USER TIME (SEC)      =  6.00000E-02
       ELAPSED SYSTEM TIME (SEC)    =  1.00000E-02
       ELAPSED TOTAL CPU TIME (SEC) =  7.00000E-02
       ELAPSED WALLCLOCK TIME (SEC) =          0

               CONVERGENCE CHECKS FOR EQUILIBRIUM ITERATION     4


 AVERAGE FORCE                      1.217E-05   TIME AVG. FORCE       1.217E-05
 LARGEST RESIDUAL FORCE            -9.625E-05   AT NODE          1   DOF  2
   INSTANCE:                                                                                 
 LARGEST INCREMENT OF DISP.        -0.353       AT NODE         18   DOF  3
   INSTANCE: PART-1-1                                                                        
 LARGEST CORRECTION TO DISP.        2.071E-02   AT NODE         18   DOF  3
   INSTANCE: PART-1-1                                                                        
          FORCE     EQUILIBRIUM NOT ACHIEVED WITHIN TOLERANCE.

 AVERAGE MOMENT                      0.00       TIME AVG. MOMENT      3.072E-02
                                                (FROM FORCE     FIELD)
 LARGEST RESIDUAL MOMENT           -1.260E-03   AT NODE          1   DOF  6
   INSTANCE:                                                                                 
 LARGEST INCREMENT OF ROTATION      1.000E-02   AT NODE          1   DOF  4
   INSTANCE: {assembly node}                                                                 
 LARGEST CORRECTION TO ROTATION    -7.277E-04   AT NODE          1   DOF  5
   INSTANCE: {assembly node}                                                                 
          THE MOMENT    IS ZERO EVERYWHERE BUT THE MOMENT    RESIDUAL OR
          THE ROTATION CORRECTION IS NON-ZERO

 COMPATIBILITY ERRORS:
    TYPE                NUMBER EXCEEDING TOLERANCE  MAXIMUM ERROR        IN ELEMENT
 VOLUMETRIC                          0                8.991E-07                 66
   INSTANCE: PART-1-1                                                                        

  NUMBER OF EQUATIONS =      4545     NUMBER OF RHS =    1
  NUMBER OF FLOATING PT. OPERATIONS =  1.18E+08

     CHECK POINT   START OF SOLVER    

     CHECK POINT  END OF SOLVER       

       ELAPSED USER TIME (SEC)      =  7.00000E-02
       ELAPSED SYSTEM TIME (SEC)    =  1.00000E-02
       ELAPSED TOTAL CPU TIME (SEC) =  8.00000E-02
       ELAPSED WALLCLOCK TIME (SEC) =          0

               CONVERGENCE CHECKS FOR EQUILIBRIUM ITERATION     5


 AVERAGE FORCE                      1.172E-05   TIME AVG. FORCE       1.172E-05
 LARGEST RESIDUAL FORCE            -2.992E-05   AT NODE          1   DOF  2
   INSTANCE:                                                                                 
 LARGEST INCREMENT OF DISP.        -0.351       AT NODE         18   DOF  3
   INSTANCE: PART-1-1                                                                        
 LARGEST CORRECTION TO DISP.       -1.819E-03   AT NODE        199   DOF  2
   INSTANCE: PART-1-1                                                                        
          FORCE     EQUILIBRIUM NOT ACHIEVED WITHIN TOLERANCE.

 AVERAGE MOMENT                      0.00       TIME AVG. MOMENT      3.072E-02
                                                (FROM FORCE     FIELD)
 LARGEST RESIDUAL MOMENT           -6.512E-04   AT NODE          1   DOF  6
   INSTANCE:                                                                                 
 LARGEST INCREMENT OF ROTATION      1.000E-02   AT NODE          1   DOF  4
   INSTANCE: {assembly node}                                                                 
 LARGEST CORRECTION TO ROTATION    -2.439E-05   AT NODE          1   DOF  5
   INSTANCE: {assembly node}                                                                 
          THE MOMENT    IS ZERO EVERYWHERE BUT THE MOMENT    RESIDUAL OR
          THE ROTATION CORRECTION IS NON-ZERO

 COMPATIBILITY ERRORS:
    TYPE                NUMBER EXCEEDING TOLERANCE  MAXIMUM ERROR        IN ELEMENT
 VOLUMETRIC                          0               -8.239E-08                684
   INSTANCE: PART-1-1                                                                        

  NUMBER OF EQUATIONS =      4545     NUMBER OF RHS =    1
  NUMBER OF FLOATING PT. OPERATIONS =  1.18E+08

     CHECK POINT   START OF SOLVER    

     CHECK POINT  END OF SOLVER       

       ELAPSED USER TIME (SEC)      =  6.00000E-02
       ELAPSED SYSTEM TIME (SEC)    =  1.00000E-02
       ELAPSED TOTAL CPU TIME (SEC) =  7.00000E-02
       ELAPSED WALLCLOCK TIME (SEC) =          0

               CONVERGENCE CHECKS FOR EQUILIBRIUM ITERATION     6


 AVERAGE FORCE                      1.171E-05   TIME AVG. FORCE       1.171E-05
 LARGEST RESIDUAL FORCE            -2.529E-06   AT NODE          1   DOF  2
   INSTANCE:                                                                                 
 LARGEST INCREMENT OF DISP.        -0.351       AT NODE         18   DOF  3
   INSTANCE: PART-1-1                                                                        
 LARGEST CORRECTION TO DISP.        7.292E-04   AT NODE         90   DOF  3
   INSTANCE: PART-1-1                                                                        
          FORCE     EQUILIBRIUM NOT ACHIEVED WITHIN TOLERANCE.

 AVERAGE MOMENT                      0.00       TIME AVG. MOMENT      3.072E-02
                                                (FROM FORCE     FIELD)
 LARGEST RESIDUAL MOMENT           -5.200E-05   AT NODE          1   DOF  6
   INSTANCE:                                                                                 
 LARGEST INCREMENT OF ROTATION      1.000E-02   AT NODE          1   DOF  4
   INSTANCE: {assembly node}                                                                 
 LARGEST CORRECTION TO ROTATION    -1.357E-05   AT NODE          1   DOF  5
   INSTANCE: {assembly node}                                                                 
          THE MOMENT    IS ZERO EVERYWHERE BUT THE MOMENT    RESIDUAL OR
          THE ROTATION CORRECTION IS NON-ZERO

 COMPATIBILITY ERRORS:
    TYPE                NUMBER EXCEEDING TOLERANCE  MAXIMUM ERROR        IN ELEMENT
 VOLUMETRIC                          0               -9.677E-09                575
   INSTANCE: PART-1-1                                                                        

  NUMBER OF EQUATIONS =      4545     NUMBER OF RHS =    1
  NUMBER OF FLOATING PT. OPERATIONS =  1.18E+08

     CHECK POINT   START OF SOLVER    

     CHECK POINT  END OF SOLVER       

       ELAPSED USER TIME (SEC)      =  6.00000E-02
       ELAPSED SYSTEM TIME (SEC)    =  1.00000E-02
       ELAPSED TOTAL CPU TIME (SEC) =  7.00000E-02
       ELAPSED WALLCLOCK TIME (SEC) =          0

               CONVERGENCE CHECKS FOR EQUILIBRIUM ITERATION     7


 AVERAGE FORCE                      1.171E-05   TIME AVG. FORCE       1.171E-05
 LARGEST RESIDUAL FORCE             1.518E-07   AT NODE       1079   DOF  1
   INSTANCE: PART-1-1                                                                        
 LARGEST INCREMENT OF DISP.        -0.351       AT NODE         18   DOF  3
   INSTANCE: PART-1-1                                                                        
 LARGEST CORRECTION TO DISP.       -1.068E-04   AT NODE       1045   DOF  1
   INSTANCE: PART-1-1                                                                        
          FORCE     EQUILIBRIUM NOT ACHIEVED WITHIN TOLERANCE.

 AVERAGE MOMENT                      0.00       TIME AVG. MOMENT      3.072E-02
                                                (FROM FORCE     FIELD)
 LARGEST RESIDUAL MOMENT           -1.776E-09   AT NODE          1   DOF  5
   INSTANCE:                                                                                 
 LARGEST INCREMENT OF ROTATION      1.000E-02   AT NODE          1   DOF  4
   INSTANCE: {assembly node}                                                                 
 LARGEST CORRECTION TO ROTATION     1.417E-07   AT NODE          1   DOF  6
   INSTANCE: {assembly node}                                                                 
          THERE IS ZERO MOMENT    EVERYWHERE

 COMPATIBILITY ERRORS:
    TYPE                NUMBER EXCEEDING TOLERANCE  MAXIMUM ERROR        IN ELEMENT
 VOLUMETRIC                          0               -3.191E-10                732
   INSTANCE: PART-1-1                                                                        

  NUMBER OF EQUATIONS =      4545     NUMBER OF RHS =    1
  NUMBER OF FLOATING PT. OPERATIONS =  1.18E+08

     CHECK POINT   START OF SOLVER    

     CHECK POINT  END OF SOLVER       

       ELAPSED USER TIME (SEC)      =  7.00000E-02
       ELAPSED SYSTEM TIME (SEC)    =  1.00000E-02
       ELAPSED TOTAL CPU TIME (SEC) =  8.00000E-02
       ELAPSED WALLCLOCK TIME (SEC) =          0

               CONVERGENCE CHECKS FOR EQUILIBRIUM ITERATION     8


 AVERAGE FORCE                      1.171E-05   TIME AVG. FORCE       1.171E-05
 LARGEST RESIDUAL FORCE             4.701E-11   AT NODE       1005   DOF  1
   INSTANCE: PART-1-1                                                                        
 LARGEST INCREMENT OF DISP.        -0.351       AT NODE         18   DOF  3
   INSTANCE: PART-1-1                                                                        
 LARGEST CORRECTION TO DISP.        6.515E-06   AT NODE       1079   DOF  1
   INSTANCE: PART-1-1                                                                        
          THE FORCE     EQUILIBRIUM EQUATIONS HAVE CONVERGED

 AVERAGE MOMENT                      0.00       TIME AVG. MOMENT      3.072E-02
                                                (FROM FORCE     FIELD)
 LARGEST RESIDUAL MOMENT            4.040E-10   AT NODE          1   DOF  6
   INSTANCE:                                                                                 
 LARGEST INCREMENT OF ROTATION      1.000E-02   AT NODE          1   DOF  4
   INSTANCE: {assembly node}                                                                 
 LARGEST CORRECTION TO ROTATION     3.146E-08   AT NODE          1   DOF  5
   INSTANCE: {assembly node}                                                                 
          THERE IS ZERO MOMENT    EVERYWHERE

 COMPATIBILITY ERRORS:
    TYPE                NUMBER EXCEEDING TOLERANCE  MAXIMUM ERROR        IN ELEMENT
 VOLUMETRIC                          0               -1.011E-12                713
   INSTANCE: PART-1-1                                                                        

 ITERATION SUMMARY FOR THE INCREMENT:   8 TOTAL ITERATIONS, OF WHICH
   0 ARE SEVERE DISCONTINUITY ITERATIONS AND  8 ARE EQUILIBRIUM ITERATIONS.

 TIME INCREMENT COMPLETED  0.100    ,  FRACTION OF STEP COMPLETED  1.000E-02
 STEP TIME COMPLETED       0.100    ,  TOTAL TIME COMPLETED        0.100    


  INCREMENT     2 STARTS. ATTEMPT NUMBER  1, TIME INCREMENT  0.100    

  NUMBER OF EQUATIONS =      4545     NUMBER OF RHS =    1
  NUMBER OF FLOATING PT. OPERATIONS =  1.18E+08

     CHECK POINT   START OF SOLVER    

     CHECK POINT  END OF SOLVER       

       ELAPSED USER TIME (SEC)      =  6.00000E-02
       ELAPSED SYSTEM TIME (SEC)    =  1.00000E-02
       ELAPSED TOTAL CPU TIME (SEC) =  7.00000E-02
       ELAPSED WALLCLOCK TIME (SEC) =          0

               CONVERGENCE CHECKS FOR EQUILIBRIUM ITERATION     1


 AVERAGE FORCE                      3.803E-05   TIME AVG. FORCE       2.487E-05
 LARGEST RESIDUAL FORCE            -1.857E-03   AT NODE          1   DOF  1
   INSTANCE:                                                                                 
 LARGEST INCREMENT OF DISP.        -0.350       AT NODE         18   DOF  3
   INSTANCE: PART-1-1                                                                        
 LARGEST CORRECTION TO DISP.       -5.666E-03   AT NODE        360   DOF  1
   INSTANCE: PART-1-1                                                                        
          FORCE     EQUILIBRIUM NOT ACHIEVED WITHIN TOLERANCE.

 AVERAGE MOMENT                      0.00       TIME AVG. MOMENT      1.000E-02
 LARGEST RESIDUAL MOMENT           -3.271E-02   AT NODE          1   DOF  6
   INSTANCE:                                                                                 
 LARGEST INCREMENT OF ROTATION      1.000E-02   AT NODE          1   DOF  4
   INSTANCE: {assembly node}                                                                 
 LARGEST CORRECTION TO ROTATION    -1.300E-04   AT NODE          1   DOF  5
   INSTANCE: {assembly node}                                                                 
          THE MOMENT    IS ZERO EVERYWHERE BUT THE MOMENT    RESIDUAL OR
          THE ROTATION CORRECTION IS NON-ZERO

 COMPATIBILITY ERRORS:
    TYPE                NUMBER EXCEEDING TOLERANCE  MAXIMUM ERROR        IN ELEMENT
 VOLUMETRIC                         51               -4.307E-04                 51
   INSTANCE: PART-1-1                                                                        

  NUMBER OF EQUATIONS =      4545     NUMBER OF RHS =    1
  NUMBER OF FLOATING PT. OPERATIONS =  1.18E+08

     CHECK POINT   START OF SOLVER    

     CHECK POINT  END OF SOLVER       

       ELAPSED USER TIME (SEC)      =  7.00000E-02
       ELAPSED SYSTEM TIME (SEC)    =  1.00000E-02
       ELAPSED TOTAL CPU TIME (SEC) =  8.00000E-02
       ELAPSED WALLCLOCK TIME (SEC) =          1

               CONVERGENCE CHECKS FOR EQUILIBRIUM ITERATION     2


 AVERAGE FORCE                      2.419E-05   TIME AVG. FORCE       1.795E-05
 LARGEST RESIDUAL FORCE            -1.188E-03   AT NODE          1   DOF  2
   INSTANCE:                                                                                 
 LARGEST INCREMENT OF DISP.        -0.351       AT NODE         18   DOF  3
   INSTANCE: PART-1-1                                                                        
 LARGEST CORRECTION TO DISP.        5.051E-03   AT NODE        360   DOF  1
   INSTANCE: PART-1-1                                                                        
          FORCE     EQUILIBRIUM NOT ACHIEVED WITHIN TOLERANCE.

 AVERAGE MOMENT                      0.00       TIME AVG. MOMENT      1.000E-02
 LARGEST RESIDUAL MOMENT            2.148E-02   AT NODE          1   DOF  6
   INSTANCE:                                                                                 
 LARGEST INCREMENT OF ROTATION      1.000E-02   AT NODE          1   DOF  4
   INSTANCE: {assembly node}                                                                 
 LARGEST CORRECTION TO ROTATION     1.374E-04   AT NODE          1   DOF  5
   INSTANCE: {assembly node}                                                                 
          THE MOMENT    IS ZERO EVERYWHERE BUT THE MOMENT    RESIDUAL OR
          THE ROTATION CORRECTION IS NON-ZERO

 COMPATIBILITY ERRORS:
    TYPE                NUMBER EXCEEDING TOLERANCE  MAXIMUM ERROR        IN ELEMENT
 VOLUMETRIC                          0                1.244E-07                 52
   INSTANCE: PART-1-1                                                                        

  NUMBER OF EQUATIONS =      4545     NUMBER OF RHS =    1
  NUMBER OF FLOATING PT. OPERATIONS =  1.18E+08

     CHECK POINT   START OF SOLVER    

     CHECK POINT  END OF SOLVER       

       ELAPSED USER TIME (SEC)      =  7.00000E-02
       ELAPSED SYSTEM TIME (SEC)    =   0.0000    
       ELAPSED TOTAL CPU TIME (SEC) =  7.00000E-02
       ELAPSED WALLCLOCK TIME (SEC) =          0

               CONVERGENCE CHECKS FOR EQUILIBRIUM ITERATION     3


 AVERAGE FORCE                      2.441E-05   TIME AVG. FORCE       1.806E-05
 LARGEST RESIDUAL FORCE            -2.368E-04   AT NODE          1   DOF  2
   INSTANCE:                                                                                 
 LARGEST INCREMENT OF DISP.        -0.351       AT NODE         18   DOF  3
   INSTANCE: PART-1-1                                                                        
 LARGEST CORRECTION TO DISP.        1.396E-03   AT NODE         74   DOF  2
   INSTANCE: PART-1-1                                                                        
          FORCE     EQUILIBRIUM NOT ACHIEVED WITHIN TOLERANCE.

 AVERAGE MOMENT                      0.00       TIME AVG. MOMENT      1.000E-02
 LARGEST RESIDUAL MOMENT            4.771E-03   AT NODE          1   DOF  6
   INSTANCE:                                                                                 
 LARGEST INCREMENT OF ROTATION      1.000E-02   AT NODE          1   DOF  4
   INSTANCE: {assembly node}                                                                 
 LARGEST CORRECTION TO ROTATION    -2.954E-05   AT NODE          1   DOF  5
   INSTANCE: {assembly node}                                                                 
          THE MOMENT    IS ZERO EVERYWHERE BUT THE MOMENT    RESIDUAL OR
          THE ROTATION CORRECTION IS NON-ZERO

 COMPATIBILITY ERRORS:
    TYPE                NUMBER EXCEEDING TOLERANCE  MAXIMUM ERROR        IN ELEMENT
 VOLUMETRIC                          0                7.236E-08                 52
   INSTANCE: PART-1-1                                                                        

  NUMBER OF EQUATIONS =      4545     NUMBER OF RHS =    1
  NUMBER OF FLOATING PT. OPERATIONS =  1.18E+08

     CHECK POINT   START OF SOLVER    

     CHECK POINT  END OF SOLVER       

       ELAPSED USER TIME (SEC)      =  6.00000E-02
       ELAPSED SYSTEM TIME (SEC)    =   0.0000    
       ELAPSED TOTAL CPU TIME (SEC) =  6.00000E-02
       ELAPSED WALLCLOCK TIME (SEC) =          0

               CONVERGENCE CHECKS FOR EQUILIBRIUM ITERATION     4


 AVERAGE FORCE                      2.458E-05   TIME AVG. FORCE       1.814E-05
 LARGEST RESIDUAL FORCE            -2.874E-05   AT NODE         94   DOF  1
   INSTANCE: PART-1-1                                                                        
 LARGEST INCREMENT OF DISP.        -0.351       AT NODE         18   DOF  3
   INSTANCE: PART-1-1                                                                        
 LARGEST CORRECTION TO DISP.        8.276E-04   AT NODE         75   DOF  2
   INSTANCE: PART-1-1                                                                        
          FORCE     EQUILIBRIUM NOT ACHIEVED WITHIN TOLERANCE.

 AVERAGE MOMENT                      0.00       TIME AVG. MOMENT      1.000E-02
 LARGEST RESIDUAL MOMENT            1.068E-04   AT NODE          1   DOF  6
   INSTANCE:                                                                                 
 LARGEST INCREMENT OF ROTATION      1.000E-02   AT NODE          1   DOF  4
   INSTANCE: {assembly node}                                                                 
 LARGEST CORRECTION TO ROTATION    -5.451E-06   AT NODE          1   DOF  5
   INSTANCE: {assembly node}                                                                 
          ALL ROTATION CORRECTIONS ARE ZERO
          THE MOMENT    IS ZERO EVERYWHERE BUT THE MOMENT    RESIDUAL OR
          THE ROTATION CORRECTION IS NON-ZERO

 COMPATIBILITY ERRORS:
    TYPE                NUMBER EXCEEDING TOLERANCE  MAXIMUM ERROR        IN ELEMENT
 VOLUMETRIC                          0               -8.505E-09                  2
   INSTANCE: PART-1-1                                                                        

  NUMBER OF EQUATIONS =      4545     NUMBER OF RHS =    1
  NUMBER OF FLOATING PT. OPERATIONS =  1.18E+08

     CHECK POINT   START OF SOLVER    

     CHECK POINT  END OF SOLVER       

       ELAPSED USER TIME (SEC)      =  7.00000E-02
       ELAPSED SYSTEM TIME (SEC)    =  1.00000E-02
       ELAPSED TOTAL CPU TIME (SEC) =  8.00000E-02
       ELAPSED WALLCLOCK TIME (SEC) =          0

               CONVERGENCE CHECKS FOR EQUILIBRIUM ITERATION     5


 AVERAGE FORCE                      2.467E-05   TIME AVG. FORCE       1.819E-05
 LARGEST RESIDUAL FORCE            -2.087E-09   AT NODE         94   DOF  1
   INSTANCE: PART-1-1                                                                        
 LARGEST INCREMENT OF DISP.        -0.351       AT NODE         18   DOF  3
   INSTANCE: PART-1-1                                                                        
 LARGEST CORRECTION TO DISP.       -1.212E-04   AT NODE         94   DOF  1
   INSTANCE: PART-1-1                                                                        
          THE FORCE     EQUILIBRIUM EQUATIONS HAVE CONVERGED

 AVERAGE MOMENT                      0.00       TIME AVG. MOMENT      1.000E-02
 LARGEST RESIDUAL MOMENT           -6.785E-09   AT NODE          1   DOF  5
   INSTANCE:                                                                                 
 LARGEST INCREMENT OF ROTATION      1.000E-02   AT NODE          1   DOF  4
   INSTANCE: {assembly node}                                                                 
 LARGEST CORRECTION TO ROTATION     2.066E-07   AT NODE          1   DOF  6
   INSTANCE: {assembly node}                                                                 
          THERE IS ZERO MOMENT    EVERYWHERE

 COMPATIBILITY ERRORS:
    TYPE                NUMBER EXCEEDING TOLERANCE  MAXIMUM ERROR        IN ELEMENT
 VOLUMETRIC                          0                2.852E-10                 71
   INSTANCE: PART-1-1                                                                        

 ITERATION SUMMARY FOR THE INCREMENT:   5 TOTAL ITERATIONS, OF WHICH
   0 ARE SEVERE DISCONTINUITY ITERATIONS AND  5 ARE EQUILIBRIUM ITERATIONS.

 TIME INCREMENT COMPLETED  0.100    ,  FRACTION OF STEP COMPLETED  2.000E-02
 STEP TIME COMPLETED       0.200    ,  TOTAL TIME COMPLETED        0.200    


  INCREMENT     3 STARTS. ATTEMPT NUMBER  1, TIME INCREMENT  0.100    

  NUMBER OF EQUATIONS =      4545     NUMBER OF RHS =    1
  NUMBER OF FLOATING PT. OPERATIONS =  1.18E+08

     CHECK POINT   START OF SOLVER    

     CHECK POINT  END OF SOLVER       

       ELAPSED USER TIME (SEC)      =  6.00000E-02
       ELAPSED SYSTEM TIME (SEC)    =  1.00000E-02
       ELAPSED TOTAL CPU TIME (SEC) =  7.00000E-02
       ELAPSED WALLCLOCK TIME (SEC) =          0

               CONVERGENCE CHECKS FOR EQUILIBRIUM ITERATION     1


 AVERAGE FORCE                      4.951E-05   TIME AVG. FORCE       2.863E-05
 LARGEST RESIDUAL FORCE            -1.479E-03   AT NODE          1   DOF  1
   INSTANCE:                                                                                 
 LARGEST INCREMENT OF DISP.        -0.350       AT NODE         18   DOF  3
   INSTANCE: PART-1-1                                                                        
 LARGEST CORRECTION TO DISP.        3.595E-03   AT NODE         18   DOF  2
   INSTANCE: PART-1-1                                                                        
          FORCE     EQUILIBRIUM NOT ACHIEVED WITHIN TOLERANCE.

 AVERAGE MOMENT                      0.00       TIME AVG. MOMENT      1.000E-02
 LARGEST RESIDUAL MOMENT           -2.691E-02   AT NODE          1   DOF  6
   INSTANCE:                                                                                 
 LARGEST INCREMENT OF ROTATION      1.000E-02   AT NODE          1   DOF  4
   INSTANCE: {assembly node}                                                                 
 LARGEST CORRECTION TO ROTATION    -1.278E-04   AT NODE          1   DOF  5
   INSTANCE: {assembly node}                                                                 
          THE MOMENT    IS ZERO EVERYWHERE BUT THE MOMENT    RESIDUAL OR
          THE ROTATION CORRECTION IS NON-ZERO

 COMPATIBILITY ERRORS:
    TYPE                NUMBER EXCEEDING TOLERANCE  MAXIMUM ERROR        IN ELEMENT
 VOLUMETRIC                         51               -4.283E-04                 51
   INSTANCE: PART-1-1                                                                        

  NUMBER OF EQUATIONS =      4545     NUMBER OF RHS =    1
  NUMBER OF FLOATING PT. OPERATIONS =  1.18E+08

     CHECK POINT   START OF SOLVER    

     CHECK POINT  END OF SOLVER       

       ELAPSED USER TIME (SEC)      =  6.00000E-02
       ELAPSED SYSTEM TIME (SEC)    =  1.00000E-02
       ELAPSED TOTAL CPU TIME (SEC) =  7.00000E-02
       ELAPSED WALLCLOCK TIME (SEC) =          0

               CONVERGENCE CHECKS FOR EQUILIBRIUM ITERATION     2


 AVERAGE FORCE                      3.688E-05   TIME AVG. FORCE       2.442E-05
 LARGEST RESIDUAL FORCE            -7.286E-04   AT NODE          1   DOF  2
   INSTANCE:                                                                                 
 LARGEST INCREMENT OF DISP.        -0.351       AT NODE         18   DOF  3
   INSTANCE: PART-1-1                                                                        
 LARGEST CORRECTION TO DISP.       -3.446E-03   AT NODE         75   DOF  2
   INSTANCE: PART-1-1                                                                        
          FORCE     EQUILIBRIUM NOT ACHIEVED WITHIN TOLERANCE.

 AVERAGE MOMENT                      0.00       TIME AVG. MOMENT      1.000E-02
 LARGEST RESIDUAL MOMENT            1.123E-02   AT NODE          1   DOF  6
   INSTANCE:                                                                                 
 LARGEST INCREMENT OF ROTATION      1.000E-02   AT NODE          1   DOF  4
   INSTANCE: {assembly node}                                                                 
 LARGEST CORRECTION TO ROTATION     1.060E-04   AT NODE          1   DOF  5
   INSTANCE: {assembly node}                                                                 
          THE MOMENT    IS ZERO EVERYWHERE BUT THE MOMENT    RESIDUAL OR
          THE ROTATION CORRECTION IS NON-ZERO

 COMPATIBILITY ERRORS:
    TYPE                NUMBER EXCEEDING TOLERANCE  MAXIMUM ERROR        IN ELEMENT
 VOLUMETRIC                          0                5.483E-08                 53
   INSTANCE: PART-1-1                                                                        

  NUMBER OF EQUATIONS =      4545     NUMBER OF RHS =    1
  NUMBER OF FLOATING PT. OPERATIONS =  1.18E+08

     CHECK POINT   START OF SOLVER    

     CHECK POINT  END OF SOLVER       

       ELAPSED USER TIME (SEC)      =  6.00000E-02
       ELAPSED SYSTEM TIME (SEC)    =  1.00000E-02
       ELAPSED TOTAL CPU TIME (SEC) =  7.00000E-02
       ELAPSED WALLCLOCK TIME (SEC) =          1

               CONVERGENCE CHECKS FOR EQUILIBRIUM ITERATION     3


 AVERAGE FORCE                      3.744E-05   TIME AVG. FORCE       2.461E-05
 LARGEST RESIDUAL FORCE            -7.387E-06   AT NODE          1   DOF  2
   INSTANCE:                                                                                 
 LARGEST INCREMENT OF DISP.        -0.350       AT NODE         18   DOF  3
   INSTANCE: PART-1-1                                                                        
 LARGEST CORRECTION TO DISP.        1.545E-03   AT NODE         75   DOF  2
   INSTANCE: PART-1-1                                                                        
          FORCE     EQUILIBRIUM NOT ACHIEVED WITHIN TOLERANCE.

 AVERAGE MOMENT                      0.00       TIME AVG. MOMENT      1.000E-02
 LARGEST RESIDUAL MOMENT            1.208E-04   AT NODE          1   DOF  6
   INSTANCE:                                                                                 
 LARGEST INCREMENT OF ROTATION      1.000E-02   AT NODE          1   DOF  4
   INSTANCE: {assembly node}                                                                 
 LARGEST CORRECTION TO ROTATION    -2.225E-05   AT NODE          1   DOF  5
   INSTANCE: {assembly node}                                                                 
          THE MOMENT    IS ZERO EVERYWHERE BUT THE MOMENT    RESIDUAL OR
          THE ROTATION CORRECTION IS NON-ZERO

 COMPATIBILITY ERRORS:
    TYPE                NUMBER EXCEEDING TOLERANCE  MAXIMUM ERROR        IN ELEMENT
 VOLUMETRIC                          0               -3.535E-08                  3
   INSTANCE: PART-1-1                                                                        

  NUMBER OF EQUATIONS =      4545     NUMBER OF RHS =    1
  NUMBER OF FLOATING PT. OPERATIONS =  1.18E+08

     CHECK POINT   START OF SOLVER    

     CHECK POINT  END OF SOLVER       

       ELAPSED USER TIME (SEC)      =  7.00000E-02
       ELAPSED SYSTEM TIME (SEC)    =  1.00000E-02
       ELAPSED TOTAL CPU TIME (SEC) =  8.00000E-02
       ELAPSED WALLCLOCK TIME (SEC) =          0

               CONVERGENCE CHECKS FOR EQUILIBRIUM ITERATION     4


 AVERAGE FORCE                      3.767E-05   TIME AVG. FORCE       2.468E-05
 LARGEST RESIDUAL FORCE             5.459E-08   AT NODE        165   DOF  1
   INSTANCE: PART-1-1                                                                        
 LARGEST INCREMENT OF DISP.        -0.350       AT NODE         18   DOF  3
   INSTANCE: PART-1-1                                                                        
 LARGEST CORRECTION TO DISP.        4.631E-05   AT NODE         92   DOF  2
   INSTANCE: PART-1-1                                                                        
          THE FORCE     EQUILIBRIUM EQUATIONS HAVE CONVERGED

 AVERAGE MOMENT                      0.00       TIME AVG. MOMENT      1.000E-02
 LARGEST RESIDUAL MOMENT           -3.112E-09   AT NODE          1   DOF  5
   INSTANCE:                                                                                 
 LARGEST INCREMENT OF ROTATION      1.000E-02   AT NODE          1   DOF  4
   INSTANCE: {assembly node}                                                                 
 LARGEST CORRECTION TO ROTATION    -2.019E-07   AT NODE          1   DOF  5
   INSTANCE: {assembly node}                                                                 
          THERE IS ZERO MOMENT    EVERYWHERE

 COMPATIBILITY ERRORS:
    TYPE                NUMBER EXCEEDING TOLERANCE  MAXIMUM ERROR        IN ELEMENT
 VOLUMETRIC                          0               -6.829E-11                 18
   INSTANCE: PART-1-1                                                                        

 ITERATION SUMMARY FOR THE INCREMENT:   4 TOTAL ITERATIONS, OF WHICH
   0 ARE SEVERE DISCONTINUITY ITERATIONS AND  4 ARE EQUILIBRIUM ITERATIONS.

 TIME INCREMENT COMPLETED  0.100    ,  FRACTION OF STEP COMPLETED  3.000E-02
 STEP TIME COMPLETED       0.300    ,  TOTAL TIME COMPLETED        0.300    


  INCREMENT     4 STARTS. ATTEMPT NUMBER  1, TIME INCREMENT  0.100    

  NUMBER OF EQUATIONS =      4545     NUMBER OF RHS =    1
  NUMBER OF FLOATING PT. OPERATIONS =  1.18E+08

     CHECK POINT   START OF SOLVER    

     CHECK POINT  END OF SOLVER       

       ELAPSED USER TIME (SEC)      =  6.00000E-02
       ELAPSED SYSTEM TIME (SEC)    =  1.00000E-02
       ELAPSED TOTAL CPU TIME (SEC) =  7.00000E-02
       ELAPSED WALLCLOCK TIME (SEC) =          0

               CONVERGENCE CHECKS FOR EQUILIBRIUM ITERATION     1


 AVERAGE FORCE                      6.247E-05   TIME AVG. FORCE       3.413E-05
 LARGEST RESIDUAL FORCE            -1.322E-03   AT NODE          1   DOF  1
   INSTANCE:                                                                                 
 LARGEST INCREMENT OF DISP.        -0.349       AT NODE         18   DOF  3
   INSTANCE: PART-1-1                                                                        
 LARGEST CORRECTION TO DISP.        3.565E-03   AT NODE         18   DOF  2
   INSTANCE: PART-1-1                                                                        
          FORCE     EQUILIBRIUM NOT ACHIEVED WITHIN TOLERANCE.

 AVERAGE MOMENT                      0.00       TIME AVG. MOMENT      1.000E-02
 LARGEST RESIDUAL MOMENT           -2.692E-02   AT NODE          1   DOF  6
   INSTANCE:                                                                                 
 LARGEST INCREMENT OF ROTATION      1.000E-02   AT NODE          1   DOF  4
   INSTANCE: {assembly node}                                                                 
 LARGEST CORRECTION TO ROTATION    -1.345E-04   AT NODE          1   DOF  5
   INSTANCE: {assembly node}                                                                 
          THE MOMENT    IS ZERO EVERYWHERE BUT THE MOMENT    RESIDUAL OR
          THE ROTATION CORRECTION IS NON-ZERO

 COMPATIBILITY ERRORS:
    TYPE                NUMBER EXCEEDING TOLERANCE  MAXIMUM ERROR        IN ELEMENT
 VOLUMETRIC                         51               -4.247E-04                 51
   INSTANCE: PART-1-1                                                                        

  NUMBER OF EQUATIONS =      4545     NUMBER OF RHS =    1
  NUMBER OF FLOATING PT. OPERATIONS =  1.18E+08

     CHECK POINT   START OF SOLVER    

     CHECK POINT  END OF SOLVER       

       ELAPSED USER TIME (SEC)      =  7.00000E-02
       ELAPSED SYSTEM TIME (SEC)    =  1.00000E-02
       ELAPSED TOTAL CPU TIME (SEC) =  8.00000E-02
       ELAPSED WALLCLOCK TIME (SEC) =          0

               CONVERGENCE CHECKS FOR EQUILIBRIUM ITERATION     2


 AVERAGE FORCE                      5.033E-05   TIME AVG. FORCE       3.109E-05
 LARGEST RESIDUAL FORCE            -3.765E-04   AT NODE          1   DOF  2
   INSTANCE:                                                                                 
 LARGEST INCREMENT OF DISP.        -0.350       AT NODE         18   DOF  3
   INSTANCE: PART-1-1                                                                        
 LARGEST CORRECTION TO DISP.       -2.460E-03   AT NODE         73   DOF  2
   INSTANCE: PART-1-1                                                                        
          FORCE     EQUILIBRIUM NOT ACHIEVED WITHIN TOLERANCE.

 AVERAGE MOMENT                      0.00       TIME AVG. MOMENT      1.000E-02
 LARGEST RESIDUAL MOMENT            4.326E-03   AT NODE          1   DOF  6
   INSTANCE:                                                                                 
 LARGEST INCREMENT OF ROTATION      1.000E-02   AT NODE          1   DOF  4
   INSTANCE: {assembly node}                                                                 
 LARGEST CORRECTION TO ROTATION     8.508E-05   AT NODE          1   DOF  5
   INSTANCE: {assembly node}                                                                 
          THE MOMENT    IS ZERO EVERYWHERE BUT THE MOMENT    RESIDUAL OR
          THE ROTATION CORRECTION IS NON-ZERO

 COMPATIBILITY ERRORS:
    TYPE                NUMBER EXCEEDING TOLERANCE  MAXIMUM ERROR        IN ELEMENT
 VOLUMETRIC                          0                4.033E-08                 52
   INSTANCE: PART-1-1                                                                        

  NUMBER OF EQUATIONS =      4545     NUMBER OF RHS =    1
  NUMBER OF FLOATING PT. OPERATIONS =  1.18E+08

     CHECK POINT   START OF SOLVER    

     CHECK POINT  END OF SOLVER       

       ELAPSED USER TIME (SEC)      =  5.00000E-02
       ELAPSED SYSTEM TIME (SEC)    =  1.00000E-02
       ELAPSED TOTAL CPU TIME (SEC) =  6.00000E-02
       ELAPSED WALLCLOCK TIME (SEC) =          0

               CONVERGENCE CHECKS FOR EQUILIBRIUM ITERATION     3


 AVERAGE FORCE                      5.124E-05   TIME AVG. FORCE       3.132E-05
 LARGEST RESIDUAL FORCE            -1.347E-05   AT NODE          1   DOF  2
   INSTANCE:                                                                                 
 LARGEST INCREMENT OF DISP.        -0.350       AT NODE         18   DOF  3
   INSTANCE: PART-1-1                                                                        
 LARGEST CORRECTION TO DISP.        8.150E-04   AT NODE        144   DOF  2
   INSTANCE: PART-1-1                                                                        
          FORCE     EQUILIBRIUM NOT ACHIEVED WITHIN TOLERANCE.

 AVERAGE MOMENT                      0.00       TIME AVG. MOMENT      1.000E-02
 LARGEST RESIDUAL MOMENT            2.610E-04   AT NODE          1   DOF  6
   INSTANCE:                                                                                 
 LARGEST INCREMENT OF ROTATION      1.000E-02   AT NODE          1   DOF  4
   INSTANCE: {assembly node}                                                                 
 LARGEST CORRECTION TO ROTATION    -7.825E-06   AT NODE          1   DOF  5
   INSTANCE: {assembly node}                                                                 
          ALL ROTATION CORRECTIONS ARE ZERO
          THE MOMENT    IS ZERO EVERYWHERE BUT THE MOMENT    RESIDUAL OR
          THE ROTATION CORRECTION IS NON-ZERO

 COMPATIBILITY ERRORS:
    TYPE                NUMBER EXCEEDING TOLERANCE  MAXIMUM ERROR        IN ELEMENT
 VOLUMETRIC                          0                1.091E-08                 52
   INSTANCE: PART-1-1                                                                        

  NUMBER OF EQUATIONS =      4545     NUMBER OF RHS =    1
  NUMBER OF FLOATING PT. OPERATIONS =  1.18E+08

     CHECK POINT   START OF SOLVER    

     CHECK POINT  END OF SOLVER       

       ELAPSED USER TIME (SEC)      =  6.00000E-02
       ELAPSED SYSTEM TIME (SEC)    =   0.0000    
       ELAPSED TOTAL CPU TIME (SEC) =  6.00000E-02
       ELAPSED WALLCLOCK TIME (SEC) =          0

               CONVERGENCE CHECKS FOR EQUILIBRIUM ITERATION     4


 AVERAGE FORCE                      5.135E-05   TIME AVG. FORCE       3.135E-05
 LARGEST RESIDUAL FORCE            -9.257E-08   AT NODE          1   DOF  1
   INSTANCE:                                                                                 
 LARGEST INCREMENT OF DISP.        -0.350       AT NODE         18   DOF  3
   INSTANCE: PART-1-1                                                                        
 LARGEST CORRECTION TO DISP.        8.858E-05   AT NODE         92   DOF  2
   INSTANCE: PART-1-1                                                                        
          THE FORCE     EQUILIBRIUM EQUATIONS HAVE CONVERGED

 AVERAGE MOMENT                      0.00       TIME AVG. MOMENT      1.000E-02
 LARGEST RESIDUAL MOMENT            1.182E-06   AT NODE          1   DOF  6
   INSTANCE:                                                                                 
 LARGEST INCREMENT OF ROTATION      1.000E-02   AT NODE          1   DOF  4
   INSTANCE: {assembly node}                                                                 
 LARGEST CORRECTION TO ROTATION    -4.624E-07   AT NODE          1   DOF  5
   INSTANCE: {assembly node}                                                                 
          ALL ROTATION CORRECTIONS ARE ZERO

 COMPATIBILITY ERRORS:
    TYPE                NUMBER EXCEEDING TOLERANCE  MAXIMUM ERROR        IN ELEMENT
 VOLUMETRIC                          0               -2.386E-10                 18
   INSTANCE: PART-1-1                                                                        
          TIME INCREMENT MAY NOW INCREASE TO    0.150    

 ITERATION SUMMARY FOR THE INCREMENT:   4 TOTAL ITERATIONS, OF WHICH
   0 ARE SEVERE DISCONTINUITY ITERATIONS AND  4 ARE EQUILIBRIUM ITERATIONS.

 TIME INCREMENT COMPLETED  0.100    ,  FRACTION OF STEP COMPLETED  4.000E-02
 STEP TIME COMPLETED       0.400    ,  TOTAL TIME COMPLETED        0.400    


  INCREMENT     5 STARTS. ATTEMPT NUMBER  1, TIME INCREMENT  0.150    

  NUMBER OF EQUATIONS =      4545     NUMBER OF RHS =    1
  NUMBER OF FLOATING PT. OPERATIONS =  1.18E+08

     CHECK POINT   START OF SOLVER    

     CHECK POINT  END OF SOLVER       

       ELAPSED USER TIME (SEC)      =  6.00000E-02
       ELAPSED SYSTEM TIME (SEC)    =  1.00000E-02
       ELAPSED TOTAL CPU TIME (SEC) =  7.00000E-02
       ELAPSED WALLCLOCK TIME (SEC) =          0

               CONVERGENCE CHECKS FOR EQUILIBRIUM ITERATION     1


 AVERAGE FORCE                      9.507E-05   TIME AVG. FORCE       4.409E-05
 LARGEST RESIDUAL FORCE            -2.741E-03   AT NODE          1   DOF  1
   INSTANCE:                                                                                 
 LARGEST INCREMENT OF DISP.        -0.521       AT NODE         18   DOF  3
   INSTANCE: PART-1-1                                                                        
 LARGEST CORRECTION TO DISP.        6.808E-03   AT NODE         18   DOF  2
   INSTANCE: PART-1-1                                                                        
          FORCE     EQUILIBRIUM NOT ACHIEVED WITHIN TOLERANCE.

 AVERAGE MOMENT                      0.00       TIME AVG. MOMENT      1.000E-02
 LARGEST RESIDUAL MOMENT           -4.770E-02   AT NODE          1   DOF  6
   INSTANCE:                                                                                 
 LARGEST INCREMENT OF ROTATION      1.500E-02   AT NODE          1   DOF  4
   INSTANCE: {assembly node}                                                                 
 LARGEST CORRECTION TO ROTATION    -2.693E-04   AT NODE          1   DOF  5
   INSTANCE: {assembly node}                                                                 
          THE MOMENT    IS ZERO EVERYWHERE BUT THE MOMENT    RESIDUAL OR
          THE ROTATION CORRECTION IS NON-ZERO

 COMPATIBILITY ERRORS:
    TYPE                NUMBER EXCEEDING TOLERANCE  MAXIMUM ERROR        IN ELEMENT
 VOLUMETRIC                         51               -7.877E-04                 51
   INSTANCE: PART-1-1                                                                        

  NUMBER OF EQUATIONS =      4545     NUMBER OF RHS =    1
  NUMBER OF FLOATING PT. OPERATIONS =  1.18E+08

     CHECK POINT   START OF SOLVER    

     CHECK POINT  END OF SOLVER       

       ELAPSED USER TIME (SEC)      =  6.00000E-02
       ELAPSED SYSTEM TIME (SEC)    =  1.00000E-02
       ELAPSED TOTAL CPU TIME (SEC) =  7.00000E-02
       ELAPSED WALLCLOCK TIME (SEC) =          0

               CONVERGENCE CHECKS FOR EQUILIBRIUM ITERATION     2


 AVERAGE FORCE                      7.190E-05   TIME AVG. FORCE       3.946E-05
 LARGEST RESIDUAL FORCE            -1.154E-03   AT NODE          1   DOF  2
   INSTANCE:                                                                                 
 LARGEST INCREMENT OF DISP.        -0.523       AT NODE         18   DOF  3
   INSTANCE: PART-1-1                                                                        
 LARGEST CORRECTION TO DISP.       -6.241E-03   AT NODE         75   DOF  2
   INSTANCE: PART-1-1                                                                        
          FORCE     EQUILIBRIUM NOT ACHIEVED WITHIN TOLERANCE.

 AVERAGE MOMENT                      0.00       TIME AVG. MOMENT      1.000E-02
 LARGEST RESIDUAL MOMENT            1.734E-02   AT NODE          1   DOF  6
   INSTANCE:                                                                                 
 LARGEST INCREMENT OF ROTATION      1.500E-02   AT NODE          1   DOF  4
   INSTANCE: {assembly node}                                                                 
 LARGEST CORRECTION TO ROTATION     1.857E-04   AT NODE          1   DOF  5
   INSTANCE: {assembly node}                                                                 
          THE MOMENT    IS ZERO EVERYWHERE BUT THE MOMENT    RESIDUAL OR
          THE ROTATION CORRECTION IS NON-ZERO

 COMPATIBILITY ERRORS:
    TYPE                NUMBER EXCEEDING TOLERANCE  MAXIMUM ERROR        IN ELEMENT
 VOLUMETRIC                          0                1.974E-07                 53
   INSTANCE: PART-1-1                                                                        

  NUMBER OF EQUATIONS =      4545     NUMBER OF RHS =    1
  NUMBER OF FLOATING PT. OPERATIONS =  1.18E+08

     CHECK POINT   START OF SOLVER    

     CHECK POINT  END OF SOLVER       

       ELAPSED USER TIME (SEC)      =  6.00000E-02
       ELAPSED SYSTEM TIME (SEC)    =  1.00000E-02
       ELAPSED TOTAL CPU TIME (SEC) =  7.00000E-02
       ELAPSED WALLCLOCK TIME (SEC) =          0

               CONVERGENCE CHECKS FOR EQUILIBRIUM ITERATION     3


 AVERAGE FORCE                      7.307E-05   TIME AVG. FORCE       3.969E-05
 LARGEST RESIDUAL FORCE            -4.774E-05   AT NODE          1   DOF  1
   INSTANCE:                                                                                 
 LARGEST INCREMENT OF DISP.        -0.522       AT NODE         18   DOF  3
   INSTANCE: PART-1-1                                                                        
 LARGEST CORRECTION TO DISP.        2.429E-03   AT NODE         75   DOF  2
   INSTANCE: PART-1-1                                                                        
          FORCE     EQUILIBRIUM NOT ACHIEVED WITHIN TOLERANCE.

 AVERAGE MOMENT                      0.00       TIME AVG. MOMENT      1.000E-02
 LARGEST RESIDUAL MOMENT            9.445E-04   AT NODE          1   DOF  6
   INSTANCE:                                                                                 
 LARGEST INCREMENT OF ROTATION      1.500E-02   AT NODE          1   DOF  4
   INSTANCE: {assembly node}                                                                 
 LARGEST CORRECTION TO ROTATION    -3.307E-05   AT NODE          1   DOF  5
   INSTANCE: {assembly node}                                                                 
          THE MOMENT    IS ZERO EVERYWHERE BUT THE MOMENT    RESIDUAL OR
          THE ROTATION CORRECTION IS NON-ZERO

 COMPATIBILITY ERRORS:
    TYPE                NUMBER EXCEEDING TOLERANCE  MAXIMUM ERROR        IN ELEMENT
 VOLUMETRIC                          0               -8.415E-08                  3
   INSTANCE: PART-1-1                                                                        

  NUMBER OF EQUATIONS =      4545     NUMBER OF RHS =    1
  NUMBER OF FLOATING PT. OPERATIONS =  1.18E+08

     CHECK POINT   START OF SOLVER    

     CHECK POINT  END OF SOLVER       

       ELAPSED USER TIME (SEC)      =  6.00000E-02
       ELAPSED SYSTEM TIME (SEC)    =  1.00000E-02
       ELAPSED TOTAL CPU TIME (SEC) =  7.00000E-02
       ELAPSED WALLCLOCK TIME (SEC) =          1

               CONVERGENCE CHECKS FOR EQUILIBRIUM ITERATION     4


 AVERAGE FORCE                      7.368E-05   TIME AVG. FORCE       3.981E-05
 LARGEST RESIDUAL FORCE            -1.669E-07   AT NODE          1   DOF  1
   INSTANCE:                                                                                 
 LARGEST INCREMENT OF DISP.        -0.522       AT NODE         18   DOF  3
   INSTANCE: PART-1-1                                                                        
 LARGEST CORRECTION TO DISP.        1.943E-04   AT NODE         75   DOF  2
   INSTANCE: PART-1-1                                                                        
          THE FORCE     EQUILIBRIUM EQUATIONS HAVE CONVERGED

 AVERAGE MOMENT                      0.00       TIME AVG. MOMENT      1.000E-02
 LARGEST RESIDUAL MOMENT            2.038E-06   AT NODE          1   DOF  6
   INSTANCE:                                                                                 
 LARGEST INCREMENT OF ROTATION      1.500E-02   AT NODE          1   DOF  4
   INSTANCE: {assembly node}                                                                 
 LARGEST CORRECTION TO ROTATION    -1.893E-06   AT NODE          1   DOF  5
   INSTANCE: {assembly node}                                                                 
          ALL ROTATION CORRECTIONS ARE ZERO

 COMPATIBILITY ERRORS:
    TYPE                NUMBER EXCEEDING TOLERANCE  MAXIMUM ERROR        IN ELEMENT
 VOLUMETRIC                          0               -9.612E-10                 18
   INSTANCE: PART-1-1                                                                        
          TIME INCREMENT MAY NOW INCREASE TO    0.225    

 ITERATION SUMMARY FOR THE INCREMENT:   4 TOTAL ITERATIONS, OF WHICH
   0 ARE SEVERE DISCONTINUITY ITERATIONS AND  4 ARE EQUILIBRIUM ITERATIONS.

 TIME INCREMENT COMPLETED  0.150    ,  FRACTION OF STEP COMPLETED  5.500E-02
 STEP TIME COMPLETED       0.550    ,  TOTAL TIME COMPLETED        0.550    


  INCREMENT     6 STARTS. ATTEMPT NUMBER  1, TIME INCREMENT  0.225    

  NUMBER OF EQUATIONS =      4545     NUMBER OF RHS =    1
  NUMBER OF FLOATING PT. OPERATIONS =  1.18E+08

     CHECK POINT   START OF SOLVER    

     CHECK POINT  END OF SOLVER       

       ELAPSED USER TIME (SEC)      =  6.00000E-02
       ELAPSED SYSTEM TIME (SEC)    =  1.00000E-02
       ELAPSED TOTAL CPU TIME (SEC) =  7.00000E-02
       ELAPSED WALLCLOCK TIME (SEC) =          0

               CONVERGENCE CHECKS FOR EQUILIBRIUM ITERATION     1


 AVERAGE FORCE                      1.637E-04   TIME AVG. FORCE       6.047E-05
 LARGEST RESIDUAL FORCE            -7.173E-03   AT NODE          1   DOF  1
   INSTANCE:                                                                                 
 LARGEST INCREMENT OF DISP.        -0.775       AT NODE         18   DOF  3
   INSTANCE: PART-1-1                                                                        
 LARGEST CORRECTION TO DISP.        1.586E-02   AT NODE         18   DOF  2
   INSTANCE: PART-1-1                                                                        
          FORCE     EQUILIBRIUM NOT ACHIEVED WITHIN TOLERANCE.

 AVERAGE MOMENT                      0.00       TIME AVG. MOMENT      1.000E-02
 LARGEST RESIDUAL MOMENT           -0.117       AT NODE          1   DOF  6
   INSTANCE:                                                                                 
 LARGEST INCREMENT OF ROTATION      2.250E-02   AT NODE          1   DOF  4
   INSTANCE: {assembly node}                                                                 
 LARGEST CORRECTION TO ROTATION    -6.502E-04   AT NODE          1   DOF  5
   INSTANCE: {assembly node}                                                                 
          THE MOMENT    IS ZERO EVERYWHERE BUT THE MOMENT    RESIDUAL OR
          THE ROTATION CORRECTION IS NON-ZERO

 COMPATIBILITY ERRORS:
    TYPE                NUMBER EXCEEDING TOLERANCE  MAXIMUM ERROR        IN ELEMENT
 VOLUMETRIC                         51               -1.747E-03                 51
   INSTANCE: PART-1-1                                                                        

  NUMBER OF EQUATIONS =      4545     NUMBER OF RHS =    1
  NUMBER OF FLOATING PT. OPERATIONS =  1.18E+08

     CHECK POINT   START OF SOLVER    

     CHECK POINT  END OF SOLVER       

       ELAPSED USER TIME (SEC)      =  6.00000E-02
       ELAPSED SYSTEM TIME (SEC)    =  1.00000E-02
       ELAPSED TOTAL CPU TIME (SEC) =  7.00000E-02
       ELAPSED WALLCLOCK TIME (SEC) =          0

               CONVERGENCE CHECKS FOR EQUILIBRIUM ITERATION     2


 AVERAGE FORCE                      1.091E-04   TIME AVG. FORCE       5.136E-05
 LARGEST RESIDUAL FORCE            -3.373E-03   AT NODE          1   DOF  2
   INSTANCE:                                                                                 
 LARGEST INCREMENT OF DISP.        -0.779       AT NODE         18   DOF  3
   INSTANCE: PART-1-1                                                                        
 LARGEST CORRECTION TO DISP.       -1.492E-02   AT NODE         74   DOF  2
   INSTANCE: PART-1-1                                                                        
          FORCE     EQUILIBRIUM NOT ACHIEVED WITHIN TOLERANCE.

 AVERAGE MOMENT                      0.00       TIME AVG. MOMENT      1.000E-02
 LARGEST RESIDUAL MOMENT            5.861E-02   AT NODE          1   DOF  6
   INSTANCE:                                                                                 
 LARGEST INCREMENT OF ROTATION      2.250E-02   AT NODE          1   DOF  4
   INSTANCE: {assembly node}                                                                 
 LARGEST CORRECTION TO ROTATION     4.633E-04   AT NODE          1   DOF  5
   INSTANCE: {assembly node}                                                                 
          THE MOMENT    IS ZERO EVERYWHERE BUT THE MOMENT    RESIDUAL OR
          THE ROTATION CORRECTION IS NON-ZERO

 COMPATIBILITY ERRORS:
    TYPE                NUMBER EXCEEDING TOLERANCE  MAXIMUM ERROR        IN ELEMENT
 VOLUMETRIC                          0                1.400E-06                 53
   INSTANCE: PART-1-1                                                                        

  NUMBER OF EQUATIONS =      4545     NUMBER OF RHS =    1
  NUMBER OF FLOATING PT. OPERATIONS =  1.18E+08

     CHECK POINT   START OF SOLVER    

     CHECK POINT  END OF SOLVER       

       ELAPSED USER TIME (SEC)      =  5.00000E-02
       ELAPSED SYSTEM TIME (SEC)    =  1.00000E-02
       ELAPSED TOTAL CPU TIME (SEC) =  6.00000E-02
       ELAPSED WALLCLOCK TIME (SEC) =          0

               CONVERGENCE CHECKS FOR EQUILIBRIUM ITERATION     3


 AVERAGE FORCE                      1.100E-04   TIME AVG. FORCE       5.152E-05
 LARGEST RESIDUAL FORCE            -4.802E-04   AT NODE          1   DOF  1
   INSTANCE:                                                                                 
 LARGEST INCREMENT OF DISP.        -0.779       AT NODE         18   DOF  3
   INSTANCE: PART-1-1                                                                        
 LARGEST CORRECTION TO DISP.        4.372E-03   AT NODE         75   DOF  2
   INSTANCE: PART-1-1                                                                        
          FORCE     EQUILIBRIUM NOT ACHIEVED WITHIN TOLERANCE.

 AVERAGE MOMENT                      0.00       TIME AVG. MOMENT      1.000E-02
 LARGEST RESIDUAL MOMENT            1.009E-02   AT NODE          1   DOF  6
   INSTANCE:                                                                                 
 LARGEST INCREMENT OF ROTATION      2.250E-02   AT NODE          1   DOF  4
   INSTANCE: {assembly node}                                                                 
 LARGEST CORRECTION TO ROTATION    -6.719E-05   AT NODE          1   DOF  5
   INSTANCE: {assembly node}                                                                 
          THE MOMENT    IS ZERO EVERYWHERE BUT THE MOMENT    RESIDUAL OR
          THE ROTATION CORRECTION IS NON-ZERO

 COMPATIBILITY ERRORS:
    TYPE                NUMBER EXCEEDING TOLERANCE  MAXIMUM ERROR        IN ELEMENT
 VOLUMETRIC                          0                4.282E-07                 53
   INSTANCE: PART-1-1                                                                        

  NUMBER OF EQUATIONS =      4545     NUMBER OF RHS =    1
  NUMBER OF FLOATING PT. OPERATIONS =  1.18E+08

     CHECK POINT   START OF SOLVER    

     CHECK POINT  END OF SOLVER       

       ELAPSED USER TIME (SEC)      =  6.00000E-02
       ELAPSED SYSTEM TIME (SEC)    =  1.00000E-02
       ELAPSED TOTAL CPU TIME (SEC) =  7.00000E-02
       ELAPSED WALLCLOCK TIME (SEC) =          0

               CONVERGENCE CHECKS FOR EQUILIBRIUM ITERATION     4


 AVERAGE FORCE                      1.120E-04   TIME AVG. FORCE       5.184E-05
 LARGEST RESIDUAL FORCE            -3.162E-06   AT NODE          1   DOF  1
   INSTANCE:                                                                                 
 LARGEST INCREMENT OF DISP.        -0.779       AT NODE         18   DOF  3
   INSTANCE: PART-1-1                                                                        
 LARGEST CORRECTION TO DISP.        1.666E-03   AT NODE         75   DOF  2
   INSTANCE: PART-1-1                                                                        
          FORCE     EQUILIBRIUM NOT ACHIEVED WITHIN TOLERANCE.

 AVERAGE MOMENT                      0.00       TIME AVG. MOMENT      1.000E-02
 LARGEST RESIDUAL MOMENT            6.127E-05   AT NODE          1   DOF  6
   INSTANCE:                                                                                 
 LARGEST INCREMENT OF ROTATION      2.250E-02   AT NODE          1   DOF  4
   INSTANCE: {assembly node}                                                                 
 LARGEST CORRECTION TO ROTATION    -1.998E-05   AT NODE          1   DOF  5
   INSTANCE: {assembly node}                                                                 
          ALL ROTATION CORRECTIONS ARE ZERO
          THE MOMENT    IS ZERO EVERYWHERE BUT THE MOMENT    RESIDUAL OR
          THE ROTATION CORRECTION IS NON-ZERO

 COMPATIBILITY ERRORS:
    TYPE                NUMBER EXCEEDING TOLERANCE  MAXIMUM ERROR        IN ELEMENT
 VOLUMETRIC                          0                2.820E-08                104
   INSTANCE: PART-1-1                                                                        

  NUMBER OF EQUATIONS =      4545     NUMBER OF RHS =    1
  NUMBER OF FLOATING PT. OPERATIONS =  1.18E+08

     CHECK POINT   START OF SOLVER    

     CHECK POINT  END OF SOLVER       

       ELAPSED USER TIME (SEC)      =  7.00000E-02
       ELAPSED SYSTEM TIME (SEC)    =  1.00000E-02
       ELAPSED TOTAL CPU TIME (SEC) =  8.00000E-02
       ELAPSED WALLCLOCK TIME (SEC) =          0

               CONVERGENCE CHECKS FOR EQUILIBRIUM ITERATION     5


 AVERAGE FORCE                      1.125E-04   TIME AVG. FORCE       5.193E-05
 LARGEST RESIDUAL FORCE             4.026E-11   AT NODE        270   DOF  3
   INSTANCE: PART-1-1                                                                        
 LARGEST INCREMENT OF DISP.        -0.779       AT NODE         18   DOF  3
   INSTANCE: PART-1-1                                                                        
 LARGEST CORRECTION TO DISP.       -2.705E-05   AT NODE        270   DOF  2
   INSTANCE: PART-1-1                                                                        
          THE FORCE     EQUILIBRIUM EQUATIONS HAVE CONVERGED

 AVERAGE MOMENT                      0.00       TIME AVG. MOMENT      1.000E-02
 LARGEST RESIDUAL MOMENT           -2.476E-08   AT NODE          1   DOF  6
   INSTANCE:                                                                                 
 LARGEST INCREMENT OF ROTATION      2.250E-02   AT NODE          1   DOF  4
   INSTANCE: {assembly node}                                                                 
 LARGEST CORRECTION TO ROTATION    -2.081E-07   AT NODE          1   DOF  5
   INSTANCE: {assembly node}                                                                 
          THERE IS ZERO MOMENT    EVERYWHERE

 COMPATIBILITY ERRORS:
    TYPE                NUMBER EXCEEDING TOLERANCE  MAXIMUM ERROR        IN ELEMENT
 VOLUMETRIC                          0               -1.628E-11                204
   INSTANCE: PART-1-1                                                                        

 ITERATION SUMMARY FOR THE INCREMENT:   5 TOTAL ITERATIONS, OF WHICH
   0 ARE SEVERE DISCONTINUITY ITERATIONS AND  5 ARE EQUILIBRIUM ITERATIONS.

 TIME INCREMENT COMPLETED  0.225    ,  FRACTION OF STEP COMPLETED  7.750E-02
 STEP TIME COMPLETED       0.775    ,  TOTAL TIME COMPLETED        0.775    


  INCREMENT     7 STARTS. ATTEMPT NUMBER  1, TIME INCREMENT  0.225    

  NUMBER OF EQUATIONS =      4545     NUMBER OF RHS =    1
  NUMBER OF FLOATING PT. OPERATIONS =  1.18E+08

     CHECK POINT   START OF SOLVER    

     CHECK POINT  END OF SOLVER       

       ELAPSED USER TIME (SEC)      =  6.00000E-02
       ELAPSED SYSTEM TIME (SEC)    =   0.0000    
       ELAPSED TOTAL CPU TIME (SEC) =  6.00000E-02
       ELAPSED WALLCLOCK TIME (SEC) =          0

               CONVERGENCE CHECKS FOR EQUILIBRIUM ITERATION     1


 AVERAGE FORCE                      2.165E-04   TIME AVG. FORCE       7.544E-05
 LARGEST RESIDUAL FORCE            -7.944E-03   AT NODE          1   DOF  1
   INSTANCE:                                                                                 
 LARGEST INCREMENT OF DISP.        -0.770       AT NODE         18   DOF  3
   INSTANCE: PART-1-1                                                                        
 LARGEST CORRECTION TO DISP.        1.862E-02   AT NODE         18   DOF  2
   INSTANCE: PART-1-1                                                                        
          FORCE     EQUILIBRIUM NOT ACHIEVED WITHIN TOLERANCE.

 AVERAGE MOMENT                      0.00       TIME AVG. MOMENT      1.000E-02
 LARGEST RESIDUAL MOMENT           -0.120       AT NODE          1   DOF  6
   INSTANCE:                                                                                 
 LARGEST INCREMENT OF ROTATION      2.250E-02   AT NODE          1   DOF  4
   INSTANCE: {assembly node}                                                                 
 LARGEST CORRECTION TO ROTATION    -6.822E-04   AT NODE          1   DOF  5
   INSTANCE: {assembly node}                                                                 
          THE MOMENT    IS ZERO EVERYWHERE BUT THE MOMENT    RESIDUAL OR
          THE ROTATION CORRECTION IS NON-ZERO

 COMPATIBILITY ERRORS:
    TYPE                NUMBER EXCEEDING TOLERANCE  MAXIMUM ERROR        IN ELEMENT
 VOLUMETRIC                         51               -2.045E-03                 51
   INSTANCE: PART-1-1                                                                        

  NUMBER OF EQUATIONS =      4545     NUMBER OF RHS =    1
  NUMBER OF FLOATING PT. OPERATIONS =  1.18E+08

     CHECK POINT   START OF SOLVER    

     CHECK POINT  END OF SOLVER       

       ELAPSED USER TIME (SEC)      =  6.00000E-02
       ELAPSED SYSTEM TIME (SEC)    =  1.00000E-02
       ELAPSED TOTAL CPU TIME (SEC) =  7.00000E-02
       ELAPSED WALLCLOCK TIME (SEC) =          0

               CONVERGENCE CHECKS FOR EQUILIBRIUM ITERATION     2


 AVERAGE FORCE                      1.544E-04   TIME AVG. FORCE       6.657E-05
 LARGEST RESIDUAL FORCE            -1.849E-03   AT NODE          1   DOF  2
   INSTANCE:                                                                                 
 LARGEST INCREMENT OF DISP.        -0.773       AT NODE         18   DOF  3
   INSTANCE: PART-1-1                                                                        
 LARGEST CORRECTION TO DISP.       -1.341E-02   AT NODE         75   DOF  2
   INSTANCE: PART-1-1                                                                        
          FORCE     EQUILIBRIUM NOT ACHIEVED WITHIN TOLERANCE.

 AVERAGE MOMENT                      0.00       TIME AVG. MOMENT      1.000E-02
 LARGEST RESIDUAL MOMENT            2.675E-02   AT NODE          1   DOF  6
   INSTANCE:                                                                                 
 LARGEST INCREMENT OF ROTATION      2.250E-02   AT NODE          1   DOF  4
   INSTANCE: {assembly node}                                                                 
 LARGEST CORRECTION TO ROTATION     4.033E-04   AT NODE          1   DOF  5
   INSTANCE: {assembly node}                                                                 
          THE MOMENT    IS ZERO EVERYWHERE BUT THE MOMENT    RESIDUAL OR
          THE ROTATION CORRECTION IS NON-ZERO

 COMPATIBILITY ERRORS:
    TYPE                NUMBER EXCEEDING TOLERANCE  MAXIMUM ERROR        IN ELEMENT
 VOLUMETRIC                          0               -7.621E-07                 35
   INSTANCE: PART-1-1                                                                        

  NUMBER OF EQUATIONS =      4545     NUMBER OF RHS =    1
  NUMBER OF FLOATING PT. OPERATIONS =  1.18E+08

     CHECK POINT   START OF SOLVER    

     CHECK POINT  END OF SOLVER       

       ELAPSED USER TIME (SEC)      =  5.00000E-02
       ELAPSED SYSTEM TIME (SEC)    =  1.00000E-02
       ELAPSED TOTAL CPU TIME (SEC) =  6.00000E-02
       ELAPSED WALLCLOCK TIME (SEC) =          0

               CONVERGENCE CHECKS FOR EQUILIBRIUM ITERATION     3


 AVERAGE FORCE                      1.570E-04   TIME AVG. FORCE       6.695E-05
 LARGEST RESIDUAL FORCE            -5.973E-05   AT NODE          1   DOF  1
   INSTANCE:                                                                                 
 LARGEST INCREMENT OF DISP.        -0.773       AT NODE         18   DOF  3
   INSTANCE: PART-1-1                                                                        
 LARGEST CORRECTION TO DISP.        3.522E-03   AT NODE         75   DOF  2
   INSTANCE: PART-1-1                                                                        
          FORCE     EQUILIBRIUM NOT ACHIEVED WITHIN TOLERANCE.

 AVERAGE MOMENT                      0.00       TIME AVG. MOMENT      1.000E-02
 LARGEST RESIDUAL MOMENT            1.214E-03   AT NODE          1   DOF  6
   INSTANCE:                                                                                 
 LARGEST INCREMENT OF ROTATION      2.250E-02   AT NODE          1   DOF  4
   INSTANCE: {assembly node}                                                                 
 LARGEST CORRECTION TO ROTATION    -4.679E-05   AT NODE          1   DOF  5
   INSTANCE: {assembly node}                                                                 
          THE MOMENT    IS ZERO EVERYWHERE BUT THE MOMENT    RESIDUAL OR
          THE ROTATION CORRECTION IS NON-ZERO

 COMPATIBILITY ERRORS:
    TYPE                NUMBER EXCEEDING TOLERANCE  MAXIMUM ERROR        IN ELEMENT
 VOLUMETRIC                          0               -1.435E-07                  3
   INSTANCE: PART-1-1                                                                        

  NUMBER OF EQUATIONS =      4545     NUMBER OF RHS =    1
  NUMBER OF FLOATING PT. OPERATIONS =  1.18E+08

     CHECK POINT   START OF SOLVER    

     CHECK POINT  END OF SOLVER       

       ELAPSED USER TIME (SEC)      =  7.00000E-02
       ELAPSED SYSTEM TIME (SEC)    =  1.00000E-02
       ELAPSED TOTAL CPU TIME (SEC) =  8.00000E-02
       ELAPSED WALLCLOCK TIME (SEC) =          0

               CONVERGENCE CHECKS FOR EQUILIBRIUM ITERATION     4


 AVERAGE FORCE                      1.598E-04   TIME AVG. FORCE       6.734E-05
 LARGEST RESIDUAL FORCE            -2.852E-07   AT NODE          1   DOF  1
   INSTANCE:                                                                                 
 LARGEST INCREMENT OF DISP.        -0.773       AT NODE         18   DOF  3
   INSTANCE: PART-1-1                                                                        
 LARGEST CORRECTION TO DISP.        1.780E-04   AT NODE         76   DOF  2
   INSTANCE: PART-1-1                                                                        
          THE FORCE     EQUILIBRIUM EQUATIONS HAVE CONVERGED

 AVERAGE MOMENT                      0.00       TIME AVG. MOMENT      1.000E-02
 LARGEST RESIDUAL MOMENT            3.020E-06   AT NODE          1   DOF  6
   INSTANCE:                                                                                 
 LARGEST INCREMENT OF ROTATION      2.250E-02   AT NODE          1   DOF  4
   INSTANCE: {assembly node}                                                                 
 LARGEST CORRECTION TO ROTATION    -3.233E-06   AT NODE          1   DOF  5
[...]
                                                (FROM FORCE     FIELD)
 LARGEST RESIDUAL MOMENT            2.134E-02   AT NODE          1   DOF  5
   INSTANCE:                                                                                 
 LARGEST INCREMENT OF ROTATION      3.937E-02   AT NODE          1   DOF  4
   INSTANCE: {assembly node}                                                                 
 LARGEST CORRECTION TO ROTATION    -5.843E-04   AT NODE          1   DOF  5
   INSTANCE: {assembly node}                                                                 
          THE MOMENT    IS ZERO EVERYWHERE BUT THE MOMENT    RESIDUAL OR
          THE ROTATION CORRECTION IS NON-ZERO

 COMPATIBILITY ERRORS:
    TYPE                NUMBER EXCEEDING TOLERANCE  MAXIMUM ERROR        IN ELEMENT
 VOLUMETRIC                          1               -1.112E-05                 17
   INSTANCE: PART-1-1                                                                        

  NUMBER OF EQUATIONS =      4545     NUMBER OF RHS =    1
  NUMBER OF FLOATING PT. OPERATIONS =  1.20E+08

     CHECK POINT   START OF SOLVER    

     CHECK POINT  END OF SOLVER       

       ELAPSED USER TIME (SEC)      =  8.00000E-02
       ELAPSED SYSTEM TIME (SEC)    =   0.0000    
       ELAPSED TOTAL CPU TIME (SEC) =  8.00000E-02
       ELAPSED WALLCLOCK TIME (SEC) =          1

               CONVERGENCE CHECKS FOR EQUILIBRIUM ITERATION     3


 AVERAGE FORCE                      3.754E-02   TIME AVG. FORCE       7.918E-03
 LARGEST RESIDUAL FORCE            -1.035E-05   AT NODE          1   DOF  2
   INSTANCE:                                                                                 
 LARGEST INCREMENT OF DISP.          1.02       AT NODE         72   DOF  2
   INSTANCE: PART-1-1                                                                        
 LARGEST CORRECTION TO DISP.        8.689E-03   AT NODE          1   DOF  3
   INSTANCE: PART-1-1                                                                        
          THE FORCE     EQUILIBRIUM EQUATIONS HAVE CONVERGED

 AVERAGE MOMENT                      0.00       TIME AVG. MOMENT      2.082E-02
                                                (FROM FORCE     FIELD)
 LARGEST RESIDUAL MOMENT           -1.840E-02   AT NODE          1   DOF  6
   INSTANCE:                                                                                 
 LARGEST INCREMENT OF ROTATION      3.938E-02   AT NODE          1   DOF  4
   INSTANCE: {assembly node}                                                                 
 LARGEST CORRECTION TO ROTATION    -3.448E-04   AT NODE          1   DOF  5
   INSTANCE: {assembly node}                                                                 
          THE MOMENT    IS ZERO EVERYWHERE BUT THE MOMENT    RESIDUAL OR
          THE ROTATION CORRECTION IS NON-ZERO

 COMPATIBILITY ERRORS:
    TYPE                NUMBER EXCEEDING TOLERANCE  MAXIMUM ERROR        IN ELEMENT
 VOLUMETRIC                          0                2.438E-07                 34
   INSTANCE: PART-1-1                                                                        

  NUMBER OF EQUATIONS =      4545     NUMBER OF RHS =    1
  NUMBER OF FLOATING PT. OPERATIONS =  1.20E+08

     CHECK POINT   START OF SOLVER    

     CHECK POINT  END OF SOLVER       

       ELAPSED USER TIME (SEC)      =  7.00000E-02
       ELAPSED SYSTEM TIME (SEC)    =  1.00000E-02
       ELAPSED TOTAL CPU TIME (SEC) =  8.00000E-02
       ELAPSED WALLCLOCK TIME (SEC) =          1

               CONVERGENCE CHECKS FOR EQUILIBRIUM ITERATION     4


 AVERAGE FORCE                      3.818E-02   TIME AVG. FORCE       7.941E-03
 LARGEST RESIDUAL FORCE             5.574E-06   AT NODE       1166   DOF  1
   INSTANCE: PART-1-1                                                                        
 LARGEST INCREMENT OF DISP.          1.02       AT NODE         72   DOF  2
   INSTANCE: PART-1-1                                                                        
 LARGEST CORRECTION TO DISP.       -4.057E-03   AT NODE          1   DOF  3
   INSTANCE: PART-1-1                                                                        
          THE FORCE     EQUILIBRIUM EQUATIONS HAVE CONVERGED

 AVERAGE MOMENT                      0.00       TIME AVG. MOMENT      2.082E-02
                                                (FROM FORCE     FIELD)
 LARGEST RESIDUAL MOMENT            5.806E-03   AT NODE          1   DOF  6
   INSTANCE:                                                                                 
 LARGEST INCREMENT OF ROTATION      3.938E-02   AT NODE          1   DOF  4
   INSTANCE: {assembly node}                                                                 
 LARGEST CORRECTION TO ROTATION     1.088E-04   AT NODE          1   DOF  5
   INSTANCE: {assembly node}                                                                 
          THE MOMENT    IS ZERO EVERYWHERE BUT THE MOMENT    RESIDUAL OR
          THE ROTATION CORRECTION IS NON-ZERO

 COMPATIBILITY ERRORS:
    TYPE                NUMBER EXCEEDING TOLERANCE  MAXIMUM ERROR        IN ELEMENT
 VOLUMETRIC                          0                1.396E-08                272
   INSTANCE: PART-1-1                                                                        

  NUMBER OF EQUATIONS =      4545     NUMBER OF RHS =    1
  NUMBER OF FLOATING PT. OPERATIONS =  1.20E+08

     CHECK POINT   START OF SOLVER    

     CHECK POINT  END OF SOLVER       

       ELAPSED USER TIME (SEC)      =  6.00000E-02
       ELAPSED SYSTEM TIME (SEC)    =  1.00000E-02
       ELAPSED TOTAL CPU TIME (SEC) =  7.00000E-02
       ELAPSED WALLCLOCK TIME (SEC) =          1

               CONVERGENCE CHECKS FOR EQUILIBRIUM ITERATION     5


 AVERAGE FORCE                      3.818E-02   TIME AVG. FORCE       7.941E-03
 LARGEST RESIDUAL FORCE            -1.419E-07   AT NODE          1   DOF  1
   INSTANCE:                                                                                 
 LARGEST INCREMENT OF DISP.          1.02       AT NODE         72   DOF  2
   INSTANCE: PART-1-1                                                                        
 LARGEST CORRECTION TO DISP.       -1.762E-03   AT NODE          1   DOF  3
   INSTANCE: PART-1-1                                                                        
          THE FORCE     EQUILIBRIUM EQUATIONS HAVE CONVERGED

 AVERAGE MOMENT                      0.00       TIME AVG. MOMENT      2.082E-02
                                                (FROM FORCE     FIELD)
 LARGEST RESIDUAL MOMENT            3.699E-03   AT NODE          1   DOF  6
   INSTANCE:                                                                                 
 LARGEST INCREMENT OF ROTATION      3.937E-02   AT NODE          1   DOF  4
   INSTANCE: {assembly node}                                                                 
 LARGEST CORRECTION TO ROTATION     6.930E-05   AT NODE          1   DOF  5
   INSTANCE: {assembly node}                                                                 
          THE MOMENT    IS ZERO EVERYWHERE BUT THE MOMENT    RESIDUAL OR
          THE ROTATION CORRECTION IS NON-ZERO

 COMPATIBILITY ERRORS:
    TYPE                NUMBER EXCEEDING TOLERANCE  MAXIMUM ERROR        IN ELEMENT
 VOLUMETRIC                          0                7.282E-09                 86
   INSTANCE: PART-1-1                                                                        

  NUMBER OF EQUATIONS =      4545     NUMBER OF RHS =    1
  NUMBER OF FLOATING PT. OPERATIONS =  1.20E+08

     CHECK POINT   START OF SOLVER    

     CHECK POINT  END OF SOLVER       

       ELAPSED USER TIME (SEC)      =  7.00000E-02
       ELAPSED SYSTEM TIME (SEC)    =  1.00000E-02
       ELAPSED TOTAL CPU TIME (SEC) =  8.00000E-02
       ELAPSED WALLCLOCK TIME (SEC) =          1

               CONVERGENCE CHECKS FOR EQUILIBRIUM ITERATION     6


 AVERAGE FORCE                      3.818E-02   TIME AVG. FORCE       7.941E-03
 LARGEST RESIDUAL FORCE            -2.424E-08   AT NODE          1   DOF  1
   INSTANCE:                                                                                 
 LARGEST INCREMENT OF DISP.          1.02       AT NODE         72   DOF  2
   INSTANCE: PART-1-1                                                                        
 LARGEST CORRECTION TO DISP.        8.161E-04   AT NODE          1   DOF  3
   INSTANCE: PART-1-1                                                                        
          THE FORCE     EQUILIBRIUM EQUATIONS HAVE CONVERGED

 AVERAGE MOMENT                      0.00       TIME AVG. MOMENT      2.082E-02
                                                (FROM FORCE     FIELD)
 LARGEST RESIDUAL MOMENT           -1.169E-03   AT NODE          1   DOF  6
   INSTANCE:                                                                                 
 LARGEST INCREMENT OF ROTATION      3.937E-02   AT NODE          1   DOF  4
   INSTANCE: {assembly node}                                                                 
 LARGEST CORRECTION TO ROTATION    -2.188E-05   AT NODE          1   DOF  5
   INSTANCE: {assembly node}                                                                 
          ALL ROTATION CORRECTIONS ARE ZERO
          THE MOMENT    IS ZERO EVERYWHERE BUT THE MOMENT    RESIDUAL OR
          THE ROTATION CORRECTION IS NON-ZERO

 COMPATIBILITY ERRORS:
    TYPE                NUMBER EXCEEDING TOLERANCE  MAXIMUM ERROR        IN ELEMENT
 VOLUMETRIC                          0                5.647E-10                221
   INSTANCE: PART-1-1                                                                        

  NUMBER OF EQUATIONS =      4545     NUMBER OF RHS =    1
  NUMBER OF FLOATING PT. OPERATIONS =  1.20E+08

     CHECK POINT   START OF SOLVER    

     CHECK POINT  END OF SOLVER       

       ELAPSED USER TIME (SEC)      =  7.00000E-02
       ELAPSED SYSTEM TIME (SEC)    =  2.00000E-02
       ELAPSED TOTAL CPU TIME (SEC) =  9.00000E-02
       ELAPSED WALLCLOCK TIME (SEC) =          0

               CONVERGENCE CHECKS FOR EQUILIBRIUM ITERATION     7


 AVERAGE FORCE                      3.818E-02   TIME AVG. FORCE       7.941E-03
 LARGEST RESIDUAL FORCE            -6.121E-09   AT NODE          1   DOF  1
   INSTANCE:                                                                                 
 LARGEST INCREMENT OF DISP.          1.02       AT NODE         72   DOF  2
   INSTANCE: PART-1-1                                                                        
 LARGEST CORRECTION TO DISP.        3.544E-04   AT NODE          1   DOF  3
   INSTANCE: PART-1-1                                                                        
          THE FORCE     EQUILIBRIUM EQUATIONS HAVE CONVERGED

 AVERAGE MOMENT                      0.00       TIME AVG. MOMENT      2.082E-02
                                                (FROM FORCE     FIELD)
 LARGEST RESIDUAL MOMENT           -7.441E-04   AT NODE          1   DOF  6
   INSTANCE:                                                                                 
 LARGEST INCREMENT OF ROTATION      3.938E-02   AT NODE          1   DOF  4
   INSTANCE: {assembly node}                                                                 
 LARGEST CORRECTION TO ROTATION    -1.393E-05   AT NODE          1   DOF  5
   INSTANCE: {assembly node}                                                                 
          ALL ROTATION CORRECTIONS ARE ZERO
          THE MOMENT    IS ZERO EVERYWHERE BUT THE MOMENT    RESIDUAL OR
          THE ROTATION CORRECTION IS NON-ZERO

 COMPATIBILITY ERRORS:
    TYPE                NUMBER EXCEEDING TOLERANCE  MAXIMUM ERROR        IN ELEMENT
 VOLUMETRIC                          0                2.945E-10                 86
   INSTANCE: PART-1-1                                                                        

  NUMBER OF EQUATIONS =      4545     NUMBER OF RHS =    1
  NUMBER OF FLOATING PT. OPERATIONS =  1.20E+08

     CHECK POINT   START OF SOLVER    

     CHECK POINT  END OF SOLVER       

       ELAPSED USER TIME (SEC)      =  7.00000E-02
       ELAPSED SYSTEM TIME (SEC)    =  1.00000E-02
       ELAPSED TOTAL CPU TIME (SEC) =  8.00000E-02
       ELAPSED WALLCLOCK TIME (SEC) =          0

               CONVERGENCE CHECKS FOR EQUILIBRIUM ITERATION     8


 AVERAGE FORCE                      3.818E-02   TIME AVG. FORCE       7.941E-03
 LARGEST RESIDUAL FORCE            -1.225E-09   AT NODE          1   DOF  1
   INSTANCE:                                                                                 
 LARGEST INCREMENT OF DISP.          1.02       AT NODE         72   DOF  2
   INSTANCE: PART-1-1                                                                        
 LARGEST CORRECTION TO DISP.       -1.641E-04   AT NODE          1   DOF  3
   INSTANCE: PART-1-1                                                                        
          THE FORCE     EQUILIBRIUM EQUATIONS HAVE CONVERGED

 AVERAGE MOMENT                      0.00       TIME AVG. MOMENT      2.082E-02
                                                (FROM FORCE     FIELD)
 LARGEST RESIDUAL MOMENT            2.350E-04   AT NODE          1   DOF  6
   INSTANCE:                                                                                 
 LARGEST INCREMENT OF ROTATION      3.938E-02   AT NODE          1   DOF  4
   INSTANCE: {assembly node}                                                                 
 LARGEST CORRECTION TO ROTATION     4.401E-06   AT NODE          1   DOF  5
   INSTANCE: {assembly node}                                                                 
          ALL ROTATION CORRECTIONS ARE ZERO
          THE MOMENT    IS ZERO EVERYWHERE BUT THE MOMENT    RESIDUAL OR
          THE ROTATION CORRECTION IS NON-ZERO

 COMPATIBILITY ERRORS:
    TYPE                NUMBER EXCEEDING TOLERANCE  MAXIMUM ERROR        IN ELEMENT
 VOLUMETRIC                          0                2.283E-11                221
   INSTANCE: PART-1-1                                                                        

  NUMBER OF EQUATIONS =      4545     NUMBER OF RHS =    1
  NUMBER OF FLOATING PT. OPERATIONS =  1.20E+08

     CHECK POINT   START OF SOLVER    

     CHECK POINT  END OF SOLVER       

       ELAPSED USER TIME (SEC)      =  8.00000E-02
       ELAPSED SYSTEM TIME (SEC)    =   0.0000    
       ELAPSED TOTAL CPU TIME (SEC) =  8.00000E-02
       ELAPSED WALLCLOCK TIME (SEC) =          0

               CONVERGENCE CHECKS FOR EQUILIBRIUM ITERATION     9


 AVERAGE FORCE                      3.818E-02   TIME AVG. FORCE       7.941E-03
 LARGEST RESIDUAL FORCE            -1.968E-10   AT NODE        236   DOF  3
   INSTANCE: PART-1-1                                                                        
 LARGEST INCREMENT OF DISP.          1.02       AT NODE         72   DOF  2
   INSTANCE: PART-1-1                                                                        
 LARGEST CORRECTION TO DISP.       -7.127E-05   AT NODE          1   DOF  3
   INSTANCE: PART-1-1                                                                        
          THE FORCE     EQUILIBRIUM EQUATIONS HAVE CONVERGED

 AVERAGE MOMENT                      0.00       TIME AVG. MOMENT      2.082E-02
                                                (FROM FORCE     FIELD)
 LARGEST RESIDUAL MOMENT            1.496E-04   AT NODE          1   DOF  6
   INSTANCE:                                                                                 
 LARGEST INCREMENT OF ROTATION      3.937E-02   AT NODE          1   DOF  4
   INSTANCE: {assembly node}                                                                 
 LARGEST CORRECTION TO ROTATION     2.802E-06   AT NODE          1   DOF  5
   INSTANCE: {assembly node}                                                                 
          ALL ROTATION CORRECTIONS ARE ZERO
          THE MOMENT    IS ZERO EVERYWHERE BUT THE MOMENT    RESIDUAL OR
          THE ROTATION CORRECTION IS NON-ZERO

 COMPATIBILITY ERRORS:
    TYPE                NUMBER EXCEEDING TOLERANCE  MAXIMUM ERROR        IN ELEMENT
 VOLUMETRIC                          0                1.190E-11                 86
   INSTANCE: PART-1-1                                                                        

  NUMBER OF EQUATIONS =      4545     NUMBER OF RHS =    1
  NUMBER OF FLOATING PT. OPERATIONS =  1.20E+08

     CHECK POINT   START OF SOLVER    

     CHECK POINT  END OF SOLVER       

       ELAPSED USER TIME (SEC)      =  7.00000E-02
       ELAPSED SYSTEM TIME (SEC)    =  1.00000E-02
       ELAPSED TOTAL CPU TIME (SEC) =  8.00000E-02
       ELAPSED WALLCLOCK TIME (SEC) =          0

               CONVERGENCE CHECKS FOR EQUILIBRIUM ITERATION    10


 AVERAGE FORCE                      3.818E-02   TIME AVG. FORCE       7.941E-03
 LARGEST RESIDUAL FORCE             6.735E-11   AT NODE        164   DOF  2
   INSTANCE: PART-1-1                                                                        
 LARGEST INCREMENT OF DISP.          1.02       AT NODE         72   DOF  2
   INSTANCE: PART-1-1                                                                        
 LARGEST CORRECTION TO DISP.        3.300E-05   AT NODE          1   DOF  3
   INSTANCE: PART-1-1                                                                        
          THE FORCE     EQUILIBRIUM EQUATIONS HAVE CONVERGED

 AVERAGE MOMENT                      0.00       TIME AVG. MOMENT      2.082E-02
                                                (FROM FORCE     FIELD)
 LARGEST RESIDUAL MOMENT           -4.725E-05   AT NODE          1   DOF  6
   INSTANCE:                                                                                 
 LARGEST INCREMENT OF ROTATION      3.937E-02   AT NODE          1   DOF  4
   INSTANCE: {assembly node}                                                                 
 LARGEST CORRECTION TO ROTATION    -8.848E-07   AT NODE          1   DOF  5
   INSTANCE: {assembly node}                                                                 
          ALL ROTATION CORRECTIONS ARE ZERO

 COMPATIBILITY ERRORS:
    TYPE                NUMBER EXCEEDING TOLERANCE  MAXIMUM ERROR        IN ELEMENT
 VOLUMETRIC                          0                9.237E-13                272
   INSTANCE: PART-1-1                                                                        

 ITERATION SUMMARY FOR THE INCREMENT:  10 TOTAL ITERATIONS, OF WHICH
   0 ARE SEVERE DISCONTINUITY ITERATIONS AND 10 ARE EQUILIBRIUM ITERATIONS.

 TIME INCREMENT COMPLETED  0.394    ,  FRACTION OF STEP COMPLETED   1.00    
 STEP TIME COMPLETED        10.0    ,  TOTAL TIME COMPLETED         10.0    


          THE ANALYSIS HAS BEEN COMPLETED



     ANALYSIS SUMMARY:
     TOTAL OF         27  INCREMENTS
                       0  CUTBACKS IN AUTOMATIC INCREMENTATION
                     150  ITERATIONS INCLUDING CONTACT ITERATIONS IF PRESENT
                     150  PASSES THROUGH THE EQUATION SOLVER OF WHICH 
                     150  INVOLVE MATRIX DECOMPOSITION, INCLUDING
                       0  DECOMPOSITION(S) OF THE MASS MATRIX
                       1  REORDERING OF EQUATIONS TO MINIMIZE WAVEFRONT
                       0  ADDITIONAL RESIDUAL EVALUATIONS FOR LINE SEARCHES
                       0  ADDITIONAL OPERATOR EVALUATIONS FOR LINE SEARCHES
                       0  WARNING MESSAGES DURING USER INPUT PROCESSING
                       0  WARNING MESSAGES DURING ANALYSIS
                       0  ANALYSIS WARNINGS ARE NUMERICAL PROBLEM MESSAGES
                       0  ANALYSIS WARNINGS ARE NEGATIVE EIGENVALUE MESSAGES
                       0  ERROR MESSAGES



     JOB TIME SUMMARY
       USER TIME (SEC)      =   134.27    
       SYSTEM TIME (SEC)    =   2.9500    
       TOTAL CPU TIME (SEC) =   137.22    
       WALLCLOCK TIME (SEC) =        138
