 Abaqus/Standard 2020                  DATE 21-Jan-2022 TIME 09:29:14
 SUMMARY OF JOB INFORMATION:
 STEP  INC ATT SEVERE EQUIL TOTAL  TOTAL      STEP       INC OF       DOF    IF
               DISCON ITERS ITERS  TIME/    TIME/LPF    TIME/LPF    MONITOR RIKS
               ITERS               FREQ
   1     1   1U    1     0     1  0.00       0.00       0.1000    
   1     1   2U    1     2     3  0.00       0.00       0.02500   
   1     1   3     0     9     9  0.00625    0.00625    0.006250  
   1     2   1     0     6     6  0.0125     0.0125     0.006250  
   1     3   1     0     5     5  0.0188     0.0188     0.006250  
   1     4   1     0     4     4  0.0250     0.0250     0.006250  
   1     5   1     0     4     4  0.0312     0.0312     0.006250  
   1     6   1     2     5     7  0.0406     0.0406     0.009375  
   1     7   1     0     8     8  0.0500     0.0500     0.009375  
   1     8   1     2     7     9  0.0594     0.0594     0.009375  
   1     9   1     0     6     6  0.0688     0.0688     0.009375  
   1    10   1     2     5     7  0.0781     0.0781     0.009375  
   1    11   1     4     7    11  0.0875     0.0875     0.009375  
   1    12   1     2     5     7  0.0969     0.0969     0.009375  
   1    13   1     2     3     5  0.106      0.106      0.009375  
   1    14   1     3     4     7  0.116      0.116      0.009375  
   1    15   1     3     5     8  0.130      0.130      0.01406   
   1    16   1     4     4     8  0.144      0.144      0.01406   
   1    17   1     4     5     9  0.158      0.158      0.01406   
   1    18   1     3     4     7  0.172      0.172      0.01406   
   1    19   1     4     3     7  0.186      0.186      0.01406   
   1    20   1     4     4     8  0.207      0.207      0.02109   
   1    21   1     3     5     8  0.239      0.239      0.03164   
   1    22   1     3     3     6  0.270      0.270      0.03164   
   1    23   1     4     4     8  0.302      0.302      0.03164   
   1    24   1     5     4     9  0.349      0.349      0.04746   
   1    25   1     6     4    10  0.421      0.421      0.07119   
   1    26   1     5     4     9  0.527      0.527      0.1068    
   1    27   1U    1     0     1  0.527      0.527      0.1602    
   1    27   2     2     4     6  0.567      0.567      0.04005   
   1    28   1     2     4     6  0.628      0.628      0.06007   
   1    29   1     4     3     7  0.718      0.718      0.09010   
   1    30   1     4     3     7  0.853      0.853      0.1352    
   1    31   1U   13    15    28  0.853      0.853      0.1472    
   1    31   2     3     3     6  0.926      0.926      0.07362   
   1    32   1U   12    10    22  0.926      0.926      0.07362   
   1    32   2     2     3     5  0.963      0.963      0.03681   
   1    33   1U    6    10    16  0.963      0.963      0.03681   
   1    33   2     2     3     5  0.982      0.982      0.01841   
   1    34   1     4     9    13  1.00       1.00       0.01841   
   2     1   1U    1     0     1  1.00       0.00       1.000     
   2     1   2U    2     0     2  1.00       0.00       0.2500    
   2     1   3     2     5     7  1.06       0.0625     0.06250   
   2     2   1     2     3     5  1.12       0.125      0.06250   
   2     3   1     2     3     5  1.19       0.188      0.06250   
   2     4   1     2     3     5  1.28       0.281      0.09375   
   2     5   1     3     3     6  1.42       0.422      0.1406    
   2     6   1     3     2     5  1.63       0.633      0.2109    
   2     7   1     4     4     8  1.95       0.949      0.3164    
   2     8   1     3     8    11  2.00       1.00       0.05078   
   3     1   1U    1     0     1  2.00       0.00       1.000     
   3     1   2     2     6     8  2.25       0.250      0.2500    
   3     2   1     2     4     6  2.50       0.500      0.2500    
   3     3   1U    4     0     4  2.50       0.500      0.2500    
   3     3   2     1     4     5  2.56       0.562      0.06250   
   3     4   1     1     6     7  2.66       0.656      0.09375   
   3     5   1     2     3     5  2.75       0.750      0.09375   
   3     6   1     1     3     4  2.84       0.844      0.09375   
   3     7   1     2     6     8  2.98       0.984      0.1406    
   3     8   1     1     6     7  3.00       1.00       0.01562   
                          
 THE ANALYSIS HAS COMPLETED SUCCESSFULLY
