1

   Abaqus 2020                                  Date 21-Jan-2022   Time 09:29:00
   For use by PURDUE UNIVERSITY under license from Dassault Systemes or its subsidiary.

                                                                                 
                                                                                 
 STEP    1     INCREMENT     1     STEP TIME    0.00    


                        S T E P       1     S T A T I C   A N A L Y S I S


                                                                                          

     AUTOMATIC TIME CONTROL WITH -
          A SUGGESTED INITIAL TIME INCREMENT OF                0.100    
          AND A TOTAL TIME PERIOD OF                            1.00    
          THE MINIMUM TIME INCREMENT ALLOWED IS                1.000E-10
          THE MAXIMUM TIME INCREMENT ALLOWED IS                 1.00    

     LINEAR EQUATION SOLVER TYPE         DIRECT SPARSE

 CONVERGENCE TOLERANCE PARAMETERS FOR FORCE    
     CRITERION FOR RESIDUAL FORCE     FOR A NONLINEAR PROBLEM          5.000E-03
     CRITERION FOR DISP.    CORRECTION IN A NONLINEAR PROBLEM          1.000E-02
     INITIAL VALUE OF TIME AVERAGE FORCE                               1.000E-02
     AVERAGE FORCE     IS TIME AVERAGE FORCE    
     ALTERNATE CRIT. FOR RESIDUAL FORCE     FOR A NONLINEAR PROBLEM    2.000E-02
     CRITERION FOR ZERO FORCE     RELATIVE TO TIME AVRG. FORCE         1.000E-05
     CRITERION FOR RESIDUAL FORCE     WHEN THERE IS ZERO FLUX          1.000E-05
     CRITERION FOR DISP.    CORRECTION WHEN THERE IS ZERO FLUX         1.000E-03
     CRITERION FOR RESIDUAL FORCE     FOR A LINEAR INCREMENT           1.000E-08
     FIELD CONVERSION RATIO                                             1.00    
     CRITERION FOR ZERO FORCE     REL. TO TIME AVRG. MAX. FORCE        1.000E-05
     CRITERION FOR ZERO DISP.    RELATIVE TO CHARACTERISTIC LENGTH     1.000E-08

 CONVERGENCE TOLERANCE PARAMETERS FOR MOMENT   
     CRITERION FOR RESIDUAL MOMENT    FOR A NONLINEAR PROBLEM          5.000E-03
     CRITERION FOR ROTATION CORRECTION IN A NONLINEAR PROBLEM          1.000E-02
     INITIAL VALUE OF TIME AVERAGE MOMENT                              1.000E-02
     AVERAGE MOMENT    IS TIME AVERAGE MOMENT   
     ALTERNATE CRIT. FOR RESIDUAL MOMENT    FOR A NONLINEAR PROBLEM    2.000E-02
     CRITERION FOR ZERO MOMENT    RELATIVE TO TIME AVRG. MOMENT        1.000E-05
     CRITERION FOR RESIDUAL MOMENT    WHEN THERE IS ZERO FLUX          1.000E-05
     CRITERION FOR ROTATION CORRECTION WHEN THERE IS ZERO FLUX         1.000E-03
     CRITERION FOR RESIDUAL MOMENT    FOR A LINEAR INCREMENT           1.000E-08
     FIELD CONVERSION RATIO                                             1.00    
     CRITERION FOR ZERO MOMENT    REL. TO TIME AVRG. MAX. MOMENT       1.000E-05

 CONVERGENCE TOLERANCE PARAMETERS FOR VOL. FLUX
     CRITERION FOR RESIDUAL VOL. FLUX FOR A NONLINEAR PROBLEM          5.000E-03
     CRITERION FOR PR. LM.  CORRECTION IN A NONLINEAR PROBLEM          1.000E-02
     INITIAL VALUE OF TIME AVERAGE VOL. FLUX                           1.000E-02
     AVERAGE VOL. FLUX IS TIME AVERAGE VOL. FLUX
     ALTERNATE CRIT. FOR RESIDUAL VOL. FLUX FOR A NONLINEAR PROBLEM    2.000E-02
     CRITERION FOR ZERO VOL. FLUX RELATIVE TO TIME AVRG. VOL. FLUX     1.000E-05
     CRITERION FOR RESIDUAL VOL. FLUX WHEN THERE IS ZERO FLUX          1.000E-05
     CRITERION FOR PR. LM.  CORRECTION WHEN THERE IS ZERO FLUX         1.000E-03
     CRITERION FOR RESIDUAL VOL. FLUX FOR A LINEAR INCREMENT           1.000E-08
     FIELD CONVERSION RATIO                                             1.00    
     CRITERION FOR ZERO VOL. FLUX REL. TO TIME AVRG. MAX. VOL. FLUX    1.000E-05

     VOLUMETRIC STRAIN COMPATIBILITY TOLERANCE FOR HYBRID SOLIDS       1.000E-05
     AXIAL STRAIN COMPATIBILITY TOLERANCE FOR HYBRID BEAMS             1.000E-05
     TRANS. SHEAR STRAIN COMPATIBILITY TOLERANCE FOR HYBRID BEAMS      1.000E-05
     SOFT CONTACT CONSTRAINT COMPATIBILITY TOLERANCE FOR P>P0          5.000E-03
     SOFT CONTACT CONSTRAINT COMPATIBILITY TOLERANCE FOR P=0.0         0.100    
     CONTACT FORCE ERROR TOLERANCE FOR CONVERT SDI=YES                 1.00    
     DISPLACEMENT COMPATIBILITY TOLERANCE FOR DCOUP ELEMENTS           1.000E-05
     ROTATION COMPATIBILITY TOLERANCE FOR DCOUP ELEMENTS               1.000E-05

 EQUILIBRIUM WILL BE CHECKED FOR SEVERE DISCONTINUITY ITERATIONS

 TIME INCREMENTATION CONTROL PARAMETERS:
     FIRST EQUILIBRIUM ITERATION FOR CONSECUTIVE DIVERGENCE CHECK              4
     EQUILIBRIUM ITERATION AT WHICH LOG. CONVERGENCE RATE CHECK BEGINS         8
     EQUILIBRIUM ITERATION AFTER WHICH ALTERNATE RESIDUAL IS USED              9
     MAXIMUM EQUILIBRIUM ITERATIONS ALLOWED                                   16
     EQUILIBRIUM ITERATION COUNT FOR CUT-BACK IN NEXT INCREMENT               10
     MAXIMUM EQUILIB. ITERS IN TWO INCREMENTS FOR TIME INCREMENT INCREASE      4
     MAXIMUM ITERATIONS FOR SEVERE DISCONTINUITIES                            50
     MAXIMUM ATTEMPTS ALLOWED IN AN INCREMENT                                  5
     MAXIMUM DISCON. ITERS IN TWO INCREMENTS FOR TIME INCREMENT INCREASE      50
     MAXIMUM CONTACT AUGMENTATIONS FOR *SURFACE BEHAVIOR,AUGMENTED LAGRANGE   50
     CUT-BACK FACTOR AFTER DIVERGENCE                                 0.2500    
     CUT-BACK FACTOR FOR TOO SLOW CONVERGENCE                         0.5000    
     CUT-BACK FACTOR AFTER TOO MANY EQUILIBRIUM ITERATIONS            0.7500    
     CUT-BACK FACTOR AFTER TOO MANY SEVERE DISCONTINUITY ITERATIONS   0.2500    
     CUT-BACK FACTOR AFTER PROBLEMS IN ELEMENT ASSEMBLY               0.2500    
     INCREASE FACTOR AFTER TWO INCREMENTS THAT CONVERGE QUICKLY        1.500    
     MAX. TIME INCREMENT INCREASE FACTOR ALLOWED                       1.500    
     MAX. TIME INCREMENT INCREASE FACTOR ALLOWED (DYNAMICS)            1.250    
     MAX. TIME INCREMENT INCREASE FACTOR ALLOWED (DIFFUSION)           2.000    
     MINIMUM TIME INCREMENT RATIO FOR EXTRAPOLATION TO OCCUR          0.1000    
     MAX. RATIO OF TIME INCREMENT TO STABILITY LIMIT                   1.000    
     FRACTION OF STABILITY LIMIT FOR NEW TIME INCREMENT               0.9500    
     TIME INCREMENT INCREASE FACTOR BEFORE A TIME POINT                1.000    
     GLOBAL STABILIZATION CONTROL IS NOT USED

          PRINT OF INCREMENT NUMBER, TIME, ETC., EVERY    1  INCREMENTS

     THE MAXIMUM NUMBER OF INCREMENTS IN THIS STEP IS                   10000

          LARGE DISPLACEMENT THEORY WILL BE USED

     LINEAR EXTRAPOLATION WILL BE USED

     CHARACTERISTIC ELEMENT LENGTH      6.02    

     DETAILS REGARDING ACTUAL SOLUTION WAVEFRONT REQUESTED

     DETAILED OUTPUT OF DIAGNOSTICS TO DATABASE REQUESTED

     PRINT OF INCREMENT NUMBER, TIME, ETC., TO THE MESSAGE FILE EVERY     1  INCREMENTS

     COLLECTING MODEL CONSTRAINT INFORMATION FOR OVERCONSTRAINT CHECKS

     COLLECTING STEP CONSTRAINT INFORMATION FOR OVERCONSTRAINT CHECKS


  INCREMENT     1 STARTS. ATTEMPT NUMBER  1, TIME INCREMENT  0.100    

 ***WARNING: THERE ARE 2 UNCONNECTED REGIONS IN THE MODEL.

 ***NOTE: SFM TYPE SURFACE ELEMENTS USED TO DEFINE CONTACT SURFACES NOT PART OF 
          A RIGID BODY MAY INCREASE THE NUMBER OR UNCONNECTED REGIONS REPORTED.

  NUMBER OF EQUATIONS =     49130     NUMBER OF RHS =    1
  NUMBER OF FLOATING PT. OPERATIONS =  2.53E+09

     CHECK POINT   START OF SOLVER    

     CHECK POINT  END OF SOLVER       

       ELAPSED USER TIME (SEC)      =  0.67000    
       ELAPSED SYSTEM TIME (SEC)    =  9.00000E-02
       ELAPSED TOTAL CPU TIME (SEC) =  0.76000    
       ELAPSED WALLCLOCK TIME (SEC) =          1
   CONTACT PAIR (ASSEMBLY_SURF-SCALP,ASSEMBLY_SURF-SKULL) NODE SCALP-1.2067 IS 
   OVERCLOSED BY 3.02003     WHICH IS TOO SEVERE.
   CONTACT PAIR (ASSEMBLY_SURF-SCALP,ASSEMBLY_SURF-SKULL) NODE SCALP-1.2069 IS 
   OVERCLOSED BY 2.66821     WHICH IS TOO SEVERE.
   CONTACT PAIR (ASSEMBLY_SURF-SCALP,ASSEMBLY_SURF-SKULL) NODE SCALP-1.2093 IS 
   OVERCLOSED BY 1.46044     WHICH IS TOO SEVERE.
   CONTACT PAIR (ASSEMBLY_SURF-SCALP,ASSEMBLY_SURF-SKULL) NODE SCALP-1.2095 IS 
   OVERCLOSED BY 2.30303     WHICH IS TOO SEVERE.
   CONTACT PAIR (ASSEMBLY_SURF-SCALP,ASSEMBLY_SURF-SKULL) NODE SCALP-1.2217 IS 
   OVERCLOSED BY 2.93819     WHICH IS TOO SEVERE.
   CONTACT PAIR (ASSEMBLY_SURF-SCALP,ASSEMBLY_SURF-SKULL) NODE SCALP-1.2219 IS 
   OVERCLOSED BY 2.03221     WHICH IS TOO SEVERE.
   CONTACT PAIR (ASSEMBLY_SURF-SCALP,ASSEMBLY_SURF-SKULL) NODE SCALP-1.2235 IS 
   OVERCLOSED BY 1.77730     WHICH IS TOO SEVERE.
   CONTACT PAIR (ASSEMBLY_SURF-SCALP,ASSEMBLY_SURF-SKULL) NODE SCALP-1.5937 IS 
   OVERCLOSED BY 1.95395     WHICH IS TOO SEVERE.
   CONTACT PAIR (ASSEMBLY_SURF-SCALP,ASSEMBLY_SURF-SKULL) NODE SCALP-1.5942 IS 
   OVERCLOSED BY 2.80046     WHICH IS TOO SEVERE.
   CONTACT PAIR (ASSEMBLY_SURF-SCALP,ASSEMBLY_SURF-SKULL) NODE SCALP-1.5943 IS 
   OVERCLOSED BY 3.98454     WHICH IS TOO SEVERE.
   CONTACT PAIR (ASSEMBLY_SURF-SCALP,ASSEMBLY_SURF-SKULL) NODE SCALP-1.5945 IS 
   OVERCLOSED BY 3.14016     WHICH IS TOO SEVERE.
   CONTACT PAIR (ASSEMBLY_SURF-SCALP,ASSEMBLY_SURF-SKULL) NODE SCALP-1.5946 IS 
   OVERCLOSED BY 4.02792     WHICH IS TOO SEVERE.
   CONTACT PAIR (ASSEMBLY_SURF-SCALP,ASSEMBLY_SURF-SKULL) NODE SCALP-1.5947 IS 
   OVERCLOSED BY 1.42448     WHICH IS TOO SEVERE.
   CONTACT PAIR (ASSEMBLY_SURF-SCALP,ASSEMBLY_SURF-SKULL) NODE SCALP-1.6107 IS 
   OVERCLOSED BY 3.67398     WHICH IS TOO SEVERE.
   CONTACT PAIR (ASSEMBLY_SURF-SCALP,ASSEMBLY_SURF-SKULL) NODE SCALP-1.6111 IS 
   OVERCLOSED BY 1.76390     WHICH IS TOO SEVERE.
   CONTACT PAIR (ASSEMBLY_SURF-SCALP,ASSEMBLY_SURF-SKULL) NODE SCALP-1.6112 IS 
   OVERCLOSED BY 2.30015     WHICH IS TOO SEVERE.
   CONTACT PAIR (ASSEMBLY_SURF-SCALP,ASSEMBLY_SURF-SKULL) NODE SCALP-1.6115 IS 
   OVERCLOSED BY 3.69618     WHICH IS TOO SEVERE.
   CONTACT PAIR (ASSEMBLY_SURF-SCALP,ASSEMBLY_SURF-SKULL) NODE SCALP-1.6116 IS 
   OVERCLOSED BY 2.79177     WHICH IS TOO SEVERE.
   CONTACT PAIR (ASSEMBLY_SURF-SCALP,ASSEMBLY_SURF-SKULL) NODE SCALP-1.6119 IS 
   OVERCLOSED BY 4.12092     WHICH IS TOO SEVERE.
   CONTACT PAIR (ASSEMBLY_SURF-SCALP,ASSEMBLY_SURF-SKULL) NODE SCALP-1.6121 IS 
   OVERCLOSED BY 3.94984     WHICH IS TOO SEVERE.
   CONTACT PAIR (ASSEMBLY_SURF-SCALP,ASSEMBLY_SURF-SKULL) NODE SCALP-1.6123 IS 
   OVERCLOSED BY 1.68461     WHICH IS TOO SEVERE.
   CONTACT PAIR (ASSEMBLY_SURF-SCALP,ASSEMBLY_SURF-SKULL) NODE SCALP-1.8192 IS 
   OVERCLOSED BY 2.99346     WHICH IS TOO SEVERE.
   CONTACT PAIR (ASSEMBLY_SURF-SCALP,ASSEMBLY_SURF-SKULL) NODE SCALP-1.8193 IS 
   OVERCLOSED BY 2.66696     WHICH IS TOO SEVERE.
   CONTACT PAIR (ASSEMBLY_SURF-SCALP,ASSEMBLY_SURF-SKULL) NODE SCALP-1.8194 IS 
   OVERCLOSED BY 1.50241     WHICH IS TOO SEVERE.
   CONTACT PAIR (ASSEMBLY_SURF-SCALP,ASSEMBLY_SURF-SKULL) NODE SCALP-1.8210 IS 
   OVERCLOSED BY 5.47195     WHICH IS TOO SEVERE.
   CONTACT PAIR (ASSEMBLY_SURF-SCALP,ASSEMBLY_SURF-SKULL) NODE SCALP-1.8211 IS 
   OVERCLOSED BY 5.15136     WHICH IS TOO SEVERE.
   CONTACT PAIR (ASSEMBLY_SURF-SCALP,ASSEMBLY_SURF-SKULL) NODE SCALP-1.8212 IS 
   OVERCLOSED BY 3.68889     WHICH IS TOO SEVERE.
   CONTACT PAIR (ASSEMBLY_SURF-SCALP,ASSEMBLY_SURF-SKULL) NODE SCALP-1.8213 IS 
   OVERCLOSED BY 1.96113     WHICH IS TOO SEVERE.
   CONTACT PAIR (ASSEMBLY_SURF-SCALP,ASSEMBLY_SURF-SKULL) NODE SCALP-1.8214 IS 
   OVERCLOSED BY 2.52153     WHICH IS TOO SEVERE.
   CONTACT PAIR (ASSEMBLY_SURF-SCALP,ASSEMBLY_SURF-SKULL) NODE SCALP-1.8236 IS 
   OVERCLOSED BY 4.16086     WHICH IS TOO SEVERE.
   CONTACT PAIR (ASSEMBLY_SURF-SCALP,ASSEMBLY_SURF-SKULL) NODE SCALP-1.8237 IS 
   OVERCLOSED BY 4.80402     WHICH IS TOO SEVERE.
   CONTACT PAIR (ASSEMBLY_SURF-SCALP,ASSEMBLY_SURF-SKULL) NODE SCALP-1.8238 IS 
   OVERCLOSED BY 2.78277     WHICH IS TOO SEVERE.
   CONTACT PAIR (ASSEMBLY_SURF-SCALP,ASSEMBLY_SURF-SKULL) NODE SCALP-1.8239 IS 
   OVERCLOSED BY 3.28205     WHICH IS TOO SEVERE.
   CONTACT PAIR (ASSEMBLY_SURF-SCALP,ASSEMBLY_SURF-SKULL) NODE SCALP-1.8241 IS 
   OVERCLOSED BY 1.74556     WHICH IS TOO SEVERE.
   CONTACT PAIR (ASSEMBLY_SURF-SCALP,ASSEMBLY_SURF-SKULL) NODE SCALP-1.8267 IS 
   OVERCLOSED BY 3.67316     WHICH IS TOO SEVERE.
   CONTACT PAIR (ASSEMBLY_SURF-SCALP,ASSEMBLY_SURF-SKULL) NODE SCALP-1.8268 IS 
   OVERCLOSED BY 3.97578     WHICH IS TOO SEVERE.
   CONTACT PAIR (ASSEMBLY_SURF-SCALP,ASSEMBLY_SURF-SKULL) NODE SCALP-1.8269 IS 
   OVERCLOSED BY 2.61131     WHICH IS TOO SEVERE.
   CONTACT PAIR (ASSEMBLY_SURF-SCALP,ASSEMBLY_SURF-SKULL) NODE SCALP-1.8270 IS 
   OVERCLOSED BY 2.87497     WHICH IS TOO SEVERE.
   CONTACT PAIR (ASSEMBLY_SURF-SCALP,ASSEMBLY_SURF-SKULL) NODE SCALP-1.8271 IS 
   OVERCLOSED BY 1.41168     WHICH IS TOO SEVERE.
   CONTACT PAIR (ASSEMBLY_SURF-SCALP,ASSEMBLY_SURF-SKULL) NODE SCALP-1.8272 IS 
   OVERCLOSED BY 1.44718     WHICH IS TOO SEVERE.
   CONTACT PAIR (ASSEMBLY_SURF-SCALP,ASSEMBLY_SURF-SKULL) NODE SCALP-1.8302 IS 
   OVERCLOSED BY 2.13609     WHICH IS TOO SEVERE.
   CONTACT PAIR (ASSEMBLY_SURF-SCALP,ASSEMBLY_SURF-SKULL) NODE SCALP-1.8360 IS 
   OVERCLOSED BY 5.69942     WHICH IS TOO SEVERE.
   CONTACT PAIR (ASSEMBLY_SURF-SCALP,ASSEMBLY_SURF-SKULL) NODE SCALP-1.8361 IS 
   OVERCLOSED BY 4.79760     WHICH IS TOO SEVERE.
   CONTACT PAIR (ASSEMBLY_SURF-SCALP,ASSEMBLY_SURF-SKULL) NODE SCALP-1.8362 IS 
   OVERCLOSED BY 4.16106     WHICH IS TOO SEVERE.
   CONTACT PAIR (ASSEMBLY_SURF-SCALP,ASSEMBLY_SURF-SKULL) NODE SCALP-1.8363 IS 
   OVERCLOSED BY 3.06614     WHICH IS TOO SEVERE.
   CONTACT PAIR (ASSEMBLY_SURF-SCALP,ASSEMBLY_SURF-SKULL) NODE SCALP-1.8364 IS 
   OVERCLOSED BY 2.35131     WHICH IS TOO SEVERE.
   CONTACT PAIR (ASSEMBLY_SURF-SCALP,ASSEMBLY_SURF-SKULL) NODE SCALP-1.8365 IS 
   OVERCLOSED BY 1.56052     WHICH IS TOO SEVERE.
   CONTACT PAIR (ASSEMBLY_SURF-SCALP,ASSEMBLY_SURF-SKULL) NODE SCALP-1.8378 IS 
   OVERCLOSED BY 4.57569     WHICH IS TOO SEVERE.
   CONTACT PAIR (ASSEMBLY_SURF-SCALP,ASSEMBLY_SURF-SKULL) NODE SCALP-1.8379 IS 
   OVERCLOSED BY 3.40627     WHICH IS TOO SEVERE.
   CONTACT PAIR (ASSEMBLY_SURF-SCALP,ASSEMBLY_SURF-SKULL) NODE SCALP-1.8380 IS 
   OVERCLOSED BY 2.92104     WHICH IS TOO SEVERE.
   CONTACT PAIR (ASSEMBLY_SURF-SCALP,ASSEMBLY_SURF-SKULL) NODE SCALP-1.8381 IS 
   OVERCLOSED BY 2.04751     WHICH IS TOO SEVERE.
   CONTACT PAIR (ASSEMBLY_SURF-SCALP,ASSEMBLY_SURF-SKULL) NODE SCALP-1.8382 IS 
   OVERCLOSED BY 1.52275     WHICH IS TOO SEVERE.
   CONTACT PAIR (ASSEMBLY_SURF-SCALP,ASSEMBLY_SURF-SKULL) NODE SCALP-1.8398 IS 
   OVERCLOSED BY 4.21140     WHICH IS TOO SEVERE.
   CONTACT PAIR (ASSEMBLY_SURF-SCALP,ASSEMBLY_SURF-SKULL) NODE SCALP-1.8399 IS 
   OVERCLOSED BY 3.81006     WHICH IS TOO SEVERE.
   CONTACT PAIR (ASSEMBLY_SURF-SCALP,ASSEMBLY_SURF-SKULL) NODE SCALP-1.8400 IS 
   OVERCLOSED BY 2.94554     WHICH IS TOO SEVERE.
   CONTACT PAIR (ASSEMBLY_SURF-SCALP,ASSEMBLY_SURF-SKULL) NODE SCALP-1.8401 IS 
   OVERCLOSED BY 2.58953     WHICH IS TOO SEVERE.
   CONTACT PAIR (ASSEMBLY_SURF-SCALP,ASSEMBLY_SURF-SKULL) NODE SCALP-1.8402 IS 
   OVERCLOSED BY 1.80590     WHICH IS TOO SEVERE.
   CONTACT PAIR (ASSEMBLY_SURF-SCALP,ASSEMBLY_SURF-SKULL) NODE SCALP-1.12080 IS 
   OVERCLOSED BY 4.80346     WHICH IS TOO SEVERE.
   CONTACT PAIR (ASSEMBLY_SURF-SCALP,ASSEMBLY_SURF-SKULL) NODE SCALP-1.12085 IS 
   OVERCLOSED BY 5.51503     WHICH IS TOO SEVERE.
   CONTACT PAIR (ASSEMBLY_SURF-SCALP,ASSEMBLY_SURF-SKULL) NODE SCALP-1.12086 IS 
   OVERCLOSED BY 6.75194     WHICH IS TOO SEVERE.
   CONTACT PAIR (ASSEMBLY_SURF-SCALP,ASSEMBLY_SURF-SKULL) NODE SCALP-1.12088 IS 
   OVERCLOSED BY 5.79145     WHICH IS TOO SEVERE.
   CONTACT PAIR (ASSEMBLY_SURF-SCALP,ASSEMBLY_SURF-SKULL) NODE SCALP-1.12089 IS 
   OVERCLOSED BY 6.46281     WHICH IS TOO SEVERE.
   CONTACT PAIR (ASSEMBLY_SURF-SCALP,ASSEMBLY_SURF-SKULL) NODE SCALP-1.12090 IS 
   OVERCLOSED BY 3.91730     WHICH IS TOO SEVERE.
   CONTACT PAIR (ASSEMBLY_SURF-SCALP,ASSEMBLY_SURF-SKULL) NODE SCALP-1.12250 IS 
   OVERCLOSED BY 6.10992     WHICH IS TOO SEVERE.
   CONTACT PAIR (ASSEMBLY_SURF-SCALP,ASSEMBLY_SURF-SKULL) NODE SCALP-1.12254 IS 
   OVERCLOSED BY 4.25761     WHICH IS TOO SEVERE.
   CONTACT PAIR (ASSEMBLY_SURF-SCALP,ASSEMBLY_SURF-SKULL) NODE SCALP-1.12255 IS 
   OVERCLOSED BY 4.72297     WHICH IS TOO SEVERE.
   CONTACT PAIR (ASSEMBLY_SURF-SCALP,ASSEMBLY_SURF-SKULL) NODE SCALP-1.12257 IS 
   OVERCLOSED BY 3.58527     WHICH IS TOO SEVERE.
   CONTACT PAIR (ASSEMBLY_SURF-SCALP,ASSEMBLY_SURF-SKULL) NODE SCALP-1.12258 IS 
   OVERCLOSED BY 6.37661     WHICH IS TOO SEVERE.
   CONTACT PAIR (ASSEMBLY_SURF-SCALP,ASSEMBLY_SURF-SKULL) NODE SCALP-1.12259 IS 
   OVERCLOSED BY 5.57992     WHICH IS TOO SEVERE.
   CONTACT PAIR (ASSEMBLY_SURF-SCALP,ASSEMBLY_SURF-SKULL) NODE SCALP-1.12262 IS 
   OVERCLOSED BY 6.84730     WHICH IS TOO SEVERE.
   CONTACT PAIR (ASSEMBLY_SURF-SCALP,ASSEMBLY_SURF-SKULL) NODE SCALP-1.12264 IS 
   OVERCLOSED BY 6.48940     WHICH IS TOO SEVERE.
   CONTACT PAIR (ASSEMBLY_SURF-SCALP,ASSEMBLY_SURF-SKULL) NODE SCALP-1.12266 IS 
   OVERCLOSED BY 4.39966     WHICH IS TOO SEVERE.
 

 ***NOTE: SEVERE CONTACT OVERCLOSURES EXIST. CONVERGENCE IS JUDGED UNLIKELY.


  INCREMENT     1 STARTS. ATTEMPT NUMBER  2, TIME INCREMENT  2.500E-02

  NUMBER OF EQUATIONS =     49130     NUMBER OF RHS =    1
  NUMBER OF FLOATING PT. OPERATIONS =  2.53E+09

     CHECK POINT   START OF SOLVER    

     CHECK POINT  END OF SOLVER       

       ELAPSED USER TIME (SEC)      =  0.64000    
       ELAPSED SYSTEM TIME (SEC)    =  5.00000E-02
       ELAPSED TOTAL CPU TIME (SEC) =  0.69000    
       ELAPSED WALLCLOCK TIME (SEC) =          1

               CONVERGENCE CHECKS FOR EQUILIBRIUM ITERATION     1


 AVERAGE FORCE                      6.402E-03   TIME AVG. FORCE       6.402E-03
 LARGEST RESIDUAL FORCE             -375.       AT NODE       2255   DOF  2
   INSTANCE: SCALP-1                                                                         
 LARGEST INCREMENT OF DISP.         -2.47       AT NODE       5946   DOF  1
   INSTANCE: SCALP-1                                                                         
 LARGEST CORRECTION TO DISP.        -2.47       AT NODE       5946   DOF  1
   INSTANCE: SCALP-1                                                                         
          FORCE     EQUILIBRIUM NOT ACHIEVED WITHIN TOLERANCE.

 AVERAGE MOMENT                      0.00       TIME AVG. MOMENT      6.016E-02
                                                (FROM FORCE     FIELD)
 ALL MOMENT    RESIDUALS ARE ZERO
 ALL ROTATION INCREMENTS ARE ZERO
 ALL CORRECTION TO ROTATION ARE ZERO
          THERE IS ZERO MOMENT    EVERYWHERE

 AVERAGE VOL. FLUX                  5.164E-04   TIME AVG. VOL. FLUX   5.164E-04
 LARGEST RESIDUAL VOL. FLUX         0.137       AT NODE       5953
   INSTANCE: SCALP-1                                                                         
 LARGEST INCREMENT OF PR. LM.      -1.541E-03   AT NODE       5959
   INSTANCE: SCALP-1                                                                         
 LARGEST CORRECTION TO PR. LM.     -1.541E-03   AT NODE       5959
   INSTANCE: SCALP-1                                                                         
          VOL. FLUX EQUILIBRIUM NOT ACHIEVED WITHIN TOLERANCE.

  NUMBER OF EQUATIONS =     49130     NUMBER OF RHS =    1
  NUMBER OF FLOATING PT. OPERATIONS =  2.53E+09

     CHECK POINT   START OF SOLVER    

     CHECK POINT  END OF SOLVER       

       ELAPSED USER TIME (SEC)      =  0.63000    
       ELAPSED SYSTEM TIME (SEC)    =  3.00000E-02
       ELAPSED TOTAL CPU TIME (SEC) =  0.66000    
       ELAPSED WALLCLOCK TIME (SEC) =          1

               CONVERGENCE CHECKS FOR EQUILIBRIUM ITERATION     2


 AVERAGE FORCE                      1.249E-03   TIME AVG. FORCE       1.249E-03
 LARGEST RESIDUAL FORCE             -97.7       AT NODE       2255   DOF  2
   INSTANCE: SCALP-1                                                                         
 LARGEST INCREMENT OF DISP.         -3.68       AT NODE       8398   DOF  1
   INSTANCE: SCALP-1                                                                         
 LARGEST CORRECTION TO DISP.        -2.15       AT NODE      12079   DOF  1
   INSTANCE: SCALP-1                                                                         
          FORCE     EQUILIBRIUM NOT ACHIEVED WITHIN TOLERANCE.

 AVERAGE MOMENT                      0.00       TIME AVG. MOMENT      6.016E-02
                                                (FROM FORCE     FIELD)
 ALL MOMENT    RESIDUALS ARE ZERO
 ALL ROTATION INCREMENTS ARE ZERO
 ALL CORRECTION TO ROTATION ARE ZERO
          THERE IS ZERO MOMENT    EVERYWHERE

 AVERAGE VOL. FLUX                  5.718E-04   TIME AVG. VOL. FLUX   5.718E-04
 LARGEST RESIDUAL VOL. FLUX         0.124       AT NODE       2258
   INSTANCE: SCALP-1                                                                         
 LARGEST INCREMENT OF PR. LM.      -1.536E-03   AT NODE       1947
   INSTANCE: SCALP-1                                                                         
 LARGEST CORRECTION TO PR. LM.      1.332E-03   AT NODE      12252
   INSTANCE: SCALP-1                                                                         
          VOL. FLUX EQUILIBRIUM NOT ACHIEVED WITHIN TOLERANCE.

  NUMBER OF EQUATIONS =     49130     NUMBER OF RHS =    1
  NUMBER OF FLOATING PT. OPERATIONS =  2.53E+09

     CHECK POINT   START OF SOLVER    

     CHECK POINT  END OF SOLVER       

       ELAPSED USER TIME (SEC)      =  0.62000    
       ELAPSED SYSTEM TIME (SEC)    =  5.00000E-02
       ELAPSED TOTAL CPU TIME (SEC) =  0.67000    
       ELAPSED WALLCLOCK TIME (SEC) =          1
   CONTACT PAIR (ASSEMBLY_SURF-SCALP,ASSEMBLY_SURF-SKULL) NODE SCALP-1.5943 IS 
   OVERCLOSED BY 1.48932     WHICH IS TOO SEVERE.
   CONTACT PAIR (ASSEMBLY_SURF-SCALP,ASSEMBLY_SURF-SKULL) NODE SCALP-1.6119 IS 
   OVERCLOSED BY 1.47791     WHICH IS TOO SEVERE.
   CONTACT PAIR (ASSEMBLY_SURF-SCALP,ASSEMBLY_SURF-SKULL) NODE SCALP-1.8360 IS 
   OVERCLOSED BY 1.54877     WHICH IS TOO SEVERE.
   CONTACT PAIR (ASSEMBLY_SURF-SCALP,ASSEMBLY_SURF-SKULL) NODE SCALP-1.12086 IS 
   OVERCLOSED BY 3.75260     WHICH IS TOO SEVERE.
   CONTACT PAIR (ASSEMBLY_SURF-SCALP,ASSEMBLY_SURF-SKULL) NODE SCALP-1.12088 IS 
   OVERCLOSED BY 1.69235     WHICH IS TOO SEVERE.
   CONTACT PAIR (ASSEMBLY_SURF-SCALP,ASSEMBLY_SURF-SKULL) NODE SCALP-1.12089 IS 
   OVERCLOSED BY 2.36390     WHICH IS TOO SEVERE.
   CONTACT PAIR (ASSEMBLY_SURF-SCALP,ASSEMBLY_SURF-SKULL) NODE SCALP-1.12258 IS 
   OVERCLOSED BY 3.18793     WHICH IS TOO SEVERE.
   CONTACT PAIR (ASSEMBLY_SURF-SCALP,ASSEMBLY_SURF-SKULL) NODE SCALP-1.12259 IS 
   OVERCLOSED BY 1.61694     WHICH IS TOO SEVERE.
   CONTACT PAIR (ASSEMBLY_SURF-SCALP,ASSEMBLY_SURF-SKULL) NODE SCALP-1.12262 IS 
   OVERCLOSED BY 3.69393     WHICH IS TOO SEVERE.
   CONTACT PAIR (ASSEMBLY_SURF-SCALP,ASSEMBLY_SURF-SKULL) NODE SCALP-1.12264 IS 
   OVERCLOSED BY 2.87130     WHICH IS TOO SEVERE.
 

 ***NOTE: SEVERE CONTACT OVERCLOSURES EXIST. CONVERGENCE IS JUDGED UNLIKELY.


  INCREMENT     1 STARTS. ATTEMPT NUMBER  3, TIME INCREMENT  6.250E-03

  NUMBER OF EQUATIONS =     49130     NUMBER OF RHS =    1
  NUMBER OF FLOATING PT. OPERATIONS =  2.53E+09

     CHECK POINT   START OF SOLVER    

     CHECK POINT  END OF SOLVER       

       ELAPSED USER TIME (SEC)      =  0.61000    
       ELAPSED SYSTEM TIME (SEC)    =  3.00000E-02
       ELAPSED TOTAL CPU TIME (SEC) =  0.64000    
       ELAPSED WALLCLOCK TIME (SEC) =          0

               CONVERGENCE CHECKS FOR EQUILIBRIUM ITERATION     1


 AVERAGE FORCE                      4.055E-04   TIME AVG. FORCE       4.055E-04
 LARGEST RESIDUAL FORCE             -24.7       AT NODE       2255   DOF  2
   INSTANCE: SCALP-1                                                                         
 LARGEST INCREMENT OF DISP.        -0.619       AT NODE       5946   DOF  1
   INSTANCE: SCALP-1                                                                         
 LARGEST CORRECTION TO DISP.       -0.619       AT NODE       5946   DOF  1
   INSTANCE: SCALP-1                                                                         
          FORCE     EQUILIBRIUM NOT ACHIEVED WITHIN TOLERANCE.

 AVERAGE MOMENT                      0.00       TIME AVG. MOMENT      6.016E-02
                                                (FROM FORCE     FIELD)
 ALL MOMENT    RESIDUALS ARE ZERO
 ALL ROTATION INCREMENTS ARE ZERO
 ALL CORRECTION TO ROTATION ARE ZERO
          THERE IS ZERO MOMENT    EVERYWHERE

 AVERAGE VOL. FLUX                  1.064E-04   TIME AVG. VOL. FLUX   1.064E-04
 LARGEST RESIDUAL VOL. FLUX         8.528E-03   AT NODE       5953
   INSTANCE: SCALP-1                                                                         
 LARGEST INCREMENT OF PR. LM.      -3.852E-04   AT NODE       5959
   INSTANCE: SCALP-1                                                                         
 LARGEST CORRECTION TO PR. LM.     -3.852E-04   AT NODE       5959
   INSTANCE: SCALP-1                                                                         
          VOL. FLUX EQUILIBRIUM NOT ACHIEVED WITHIN TOLERANCE.

  NUMBER OF EQUATIONS =     49130     NUMBER OF RHS =    1
  NUMBER OF FLOATING PT. OPERATIONS =  2.53E+09

     CHECK POINT   START OF SOLVER    

     CHECK POINT  END OF SOLVER       

       ELAPSED USER TIME (SEC)      =  0.61000    
       ELAPSED SYSTEM TIME (SEC)    =  3.00000E-02
       ELAPSED TOTAL CPU TIME (SEC) =  0.64000    
       ELAPSED WALLCLOCK TIME (SEC) =          0

               CONVERGENCE CHECKS FOR EQUILIBRIUM ITERATION     2


 AVERAGE FORCE                      8.284E-06   TIME AVG. FORCE       8.284E-06
 LARGEST RESIDUAL FORCE            -0.280       AT NODE       2255   DOF  2
   INSTANCE: SCALP-1                                                                         
 LARGEST INCREMENT OF DISP.        -0.638       AT NODE       6121   DOF  1
   INSTANCE: SCALP-1                                                                         
 LARGEST CORRECTION TO DISP.       -8.948E-02   AT NODE      12116   DOF  1
   INSTANCE: SCALP-1                                                                         
          FORCE     EQUILIBRIUM NOT ACHIEVED WITHIN TOLERANCE.

 AVERAGE MOMENT                      0.00       TIME AVG. MOMENT      6.016E-02
                                                (FROM FORCE     FIELD)
 ALL MOMENT    RESIDUALS ARE ZERO
 ALL ROTATION INCREMENTS ARE ZERO
 ALL CORRECTION TO ROTATION ARE ZERO
          THERE IS ZERO MOMENT    EVERYWHERE

 AVERAGE VOL. FLUX                  1.065E-04   TIME AVG. VOL. FLUX   1.065E-04
 LARGEST RESIDUAL VOL. FLUX         2.327E-04   AT NODE       2218
   INSTANCE: SCALP-1                                                                         
 LARGEST INCREMENT OF PR. LM.      -3.771E-04   AT NODE       5959
   INSTANCE: SCALP-1                                                                         
 LARGEST CORRECTION TO PR. LM.      2.666E-04   AT NODE       8782
   INSTANCE: SCALP-1                                                                         
          VOL. FLUX EQUILIBRIUM NOT ACHIEVED WITHIN TOLERANCE.

  NUMBER OF EQUATIONS =     49130     NUMBER OF RHS =    1
  NUMBER OF FLOATING PT. OPERATIONS =  2.53E+09

     CHECK POINT   START OF SOLVER    

     CHECK POINT  END OF SOLVER       

       ELAPSED USER TIME (SEC)      =  0.64000    
       ELAPSED SYSTEM TIME (SEC)    =  5.00000E-02
       ELAPSED TOTAL CPU TIME (SEC) =  0.69000    
       ELAPSED WALLCLOCK TIME (SEC) =          0

               CONVERGENCE CHECKS FOR EQUILIBRIUM ITERATION     3


 AVERAGE FORCE                      7.511E-06   TIME AVG. FORCE       7.511E-06
 LARGEST RESIDUAL FORCE             0.296       AT NODE       5934   DOF  2
   INSTANCE: SCALP-1                                                                         
 LARGEST INCREMENT OF DISP.        -0.697       AT NODE       5943   DOF  1
   INSTANCE: SCALP-1                                                                         
 LARGEST CORRECTION TO DISP.       -7.700E-02   AT NODE       6123   DOF  1
   INSTANCE: SCALP-1                                                                         
          FORCE     EQUILIBRIUM NOT ACHIEVED WITHIN TOLERANCE.

 AVERAGE MOMENT                      0.00       TIME AVG. MOMENT      6.016E-02
                                                (FROM FORCE     FIELD)
 ALL MOMENT    RESIDUALS ARE ZERO
 ALL ROTATION INCREMENTS ARE ZERO
 ALL CORRECTION TO ROTATION ARE ZERO
          THERE IS ZERO MOMENT    EVERYWHERE

 AVERAGE VOL. FLUX                  1.087E-04   TIME AVG. VOL. FLUX   1.087E-04
 LARGEST RESIDUAL VOL. FLUX         1.896E-04   AT NODE       8181
   INSTANCE: SCALP-1                                                                         
 LARGEST INCREMENT OF PR. LM.       3.623E-04   AT NODE       8981
   INSTANCE: SCALP-1                                                                         
 LARGEST CORRECTION TO PR. LM.      1.446E-04   AT NODE       3533
   INSTANCE: SCALP-1                                                                         
          VOL. FLUX EQUILIBRIUM NOT ACHIEVED WITHIN TOLERANCE.

  NUMBER OF EQUATIONS =     49130     NUMBER OF RHS =    1
  NUMBER OF FLOATING PT. OPERATIONS =  2.53E+09

     CHECK POINT   START OF SOLVER    

     CHECK POINT  END OF SOLVER       

       ELAPSED USER TIME (SEC)      =  0.61000    
       ELAPSED SYSTEM TIME (SEC)    =  4.00000E-02
       ELAPSED TOTAL CPU TIME (SEC) =  0.65000    
       ELAPSED WALLCLOCK TIME (SEC) =          0

               CONVERGENCE CHECKS FOR EQUILIBRIUM ITERATION     4


 AVERAGE FORCE                      4.743E-06   TIME AVG. FORCE       4.743E-06
 LARGEST RESIDUAL FORCE            -0.125       AT NODE       2255   DOF  2
   INSTANCE: SCALP-1                                                                         
 LARGEST INCREMENT OF DISP.        -0.740       AT NODE       2255   DOF  1
   INSTANCE: SCALP-1                                                                         
 LARGEST CORRECTION TO DISP.       -5.170E-02   AT NODE       8398   DOF  1
   INSTANCE: SCALP-1                                                                         
          FORCE     EQUILIBRIUM NOT ACHIEVED WITHIN TOLERANCE.

 AVERAGE MOMENT                      0.00       TIME AVG. MOMENT      6.016E-02
                                                (FROM FORCE     FIELD)
 ALL MOMENT    RESIDUALS ARE ZERO
 ALL ROTATION INCREMENTS ARE ZERO
 ALL CORRECTION TO ROTATION ARE ZERO
          THERE IS ZERO MOMENT    EVERYWHERE

 AVERAGE VOL. FLUX                  1.055E-04   TIME AVG. VOL. FLUX   1.055E-04
 LARGEST RESIDUAL VOL. FLUX         5.093E-05   AT NODE       2258
   INSTANCE: SCALP-1                                                                         
 LARGEST INCREMENT OF PR. LM.       4.073E-04   AT NODE       8981
   INSTANCE: SCALP-1                                                                         
 LARGEST CORRECTION TO PR. LM.      1.007E-04   AT NODE       5957
   INSTANCE: SCALP-1                                                                         
          VOL. FLUX EQUILIBRIUM NOT ACHIEVED WITHIN TOLERANCE.

  NUMBER OF EQUATIONS =     49130     NUMBER OF RHS =    1
  NUMBER OF FLOATING PT. OPERATIONS =  2.53E+09

     CHECK POINT   START OF SOLVER    

     CHECK POINT  END OF SOLVER       

       ELAPSED USER TIME (SEC)      =  0.58000    
       ELAPSED SYSTEM TIME (SEC)    =  3.00000E-02
       ELAPSED TOTAL CPU TIME (SEC) =  0.61000    
       ELAPSED WALLCLOCK TIME (SEC) =          0

               CONVERGENCE CHECKS FOR EQUILIBRIUM ITERATION     5


 AVERAGE FORCE                      3.462E-06   TIME AVG. FORCE       3.462E-06
 LARGEST RESIDUAL FORCE             3.083E-03   AT NODE       5934   DOF  2
   INSTANCE: SCALP-1                                                                         
 LARGEST INCREMENT OF DISP.        -0.748       AT NODE       2255   DOF  1
   INSTANCE: SCALP-1                                                                         
 LARGEST CORRECTION TO DISP.       -8.123E-03   AT NODE       2255   DOF  1
   INSTANCE: SCALP-1                                                                         
          FORCE     EQUILIBRIUM NOT ACHIEVED WITHIN TOLERANCE.

 AVERAGE MOMENT                      0.00       TIME AVG. MOMENT      6.016E-02
                                                (FROM FORCE     FIELD)
 ALL MOMENT    RESIDUALS ARE ZERO
 ALL ROTATION INCREMENTS ARE ZERO
 ALL CORRECTION TO ROTATION ARE ZERO
          THERE IS ZERO MOMENT    EVERYWHERE

 AVERAGE VOL. FLUX                  1.049E-04   TIME AVG. VOL. FLUX   1.049E-04
 LARGEST RESIDUAL VOL. FLUX         1.829E-06   AT NODE       5942
   INSTANCE: SCALP-1                                                                         
 LARGEST INCREMENT OF PR. LM.       4.039E-04   AT NODE       8981
   INSTANCE: SCALP-1                                                                         
 LARGEST CORRECTION TO PR. LM.      3.013E-05   AT NODE       5917
   INSTANCE: SCALP-1                                                                         
          VOL. FLUX EQUILIBRIUM NOT ACHIEVED WITHIN TOLERANCE.

  NUMBER OF EQUATIONS =     49130     NUMBER OF RHS =    1
  NUMBER OF FLOATING PT. OPERATIONS =  2.53E+09

     CHECK POINT   START OF SOLVER    

     CHECK POINT  END OF SOLVER       

       ELAPSED USER TIME (SEC)      =  0.65000    
       ELAPSED SYSTEM TIME (SEC)    =  3.00000E-02
       ELAPSED TOTAL CPU TIME (SEC) =  0.68000    
       ELAPSED WALLCLOCK TIME (SEC) =          0

               CONVERGENCE CHECKS FOR EQUILIBRIUM ITERATION     6


 AVERAGE FORCE                      3.443E-06   TIME AVG. FORCE       3.443E-06
 LARGEST RESIDUAL FORCE            -9.360E-06   AT NODE       2255   DOF  2
   INSTANCE: SCALP-1                                                                         
 LARGEST INCREMENT OF DISP.        -0.749       AT NODE       2255   DOF  1
   INSTANCE: SCALP-1                                                                         
 LARGEST CORRECTION TO DISP.       -4.565E-04   AT NODE      12073   DOF  1
   INSTANCE: SCALP-1                                                                         
          FORCE     EQUILIBRIUM NOT ACHIEVED WITHIN TOLERANCE.

 AVERAGE MOMENT                      0.00       TIME AVG. MOMENT      6.016E-02
                                                (FROM FORCE     FIELD)
 ALL MOMENT    RESIDUALS ARE ZERO
 ALL ROTATION INCREMENTS ARE ZERO
 ALL CORRECTION TO ROTATION ARE ZERO
          THERE IS ZERO MOMENT    EVERYWHERE

 AVERAGE VOL. FLUX                  1.048E-04   TIME AVG. VOL. FLUX   1.048E-04
 LARGEST RESIDUAL VOL. FLUX         3.368E-08   AT NODE       7972
   INSTANCE: SCALP-1                                                                         
 LARGEST INCREMENT OF PR. LM.       4.029E-04   AT NODE       8981
   INSTANCE: SCALP-1                                                                         
 LARGEST CORRECTION TO PR. LM.     -4.523E-06   AT NODE       1985
   INSTANCE: SCALP-1                                                                         
 ESTIMATE OF PR. LM.  CORRECTION   -8.329E-08
 VOL. FLUX EQUILIB. ACCEPTED BASED ON SMALL RESIDUAL AND ESTIMATED CORRECTION

  NUMBER OF EQUATIONS =     49130     NUMBER OF RHS =    1
  NUMBER OF FLOATING PT. OPERATIONS =  2.53E+09

     CHECK POINT   START OF SOLVER    

     CHECK POINT  END OF SOLVER       

       ELAPSED USER TIME (SEC)      =  0.61000    
       ELAPSED SYSTEM TIME (SEC)    =  3.00000E-02
       ELAPSED TOTAL CPU TIME (SEC) =  0.64000    
       ELAPSED WALLCLOCK TIME (SEC) =          0

               CONVERGENCE CHECKS FOR EQUILIBRIUM ITERATION     7


 AVERAGE FORCE                      3.454E-06   TIME AVG. FORCE       3.454E-06
 LARGEST RESIDUAL FORCE             3.711E-07   AT NODE       5930   DOF  2
   INSTANCE: SCALP-1                                                                         
 LARGEST INCREMENT OF DISP.        -0.749       AT NODE       2255   DOF  1
   INSTANCE: SCALP-1                                                                         
 LARGEST CORRECTION TO DISP.       -5.982E-05   AT NODE       2255   DOF  1
   INSTANCE: SCALP-1                                                                         
          FORCE     EQUILIBRIUM NOT ACHIEVED WITHIN TOLERANCE.

 AVERAGE MOMENT                      0.00       TIME AVG. MOMENT      6.016E-02
                                                (FROM FORCE     FIELD)
 ALL MOMENT    RESIDUALS ARE ZERO
 ALL ROTATION INCREMENTS ARE ZERO
 ALL CORRECTION TO ROTATION ARE ZERO
          THERE IS ZERO MOMENT    EVERYWHERE

 AVERAGE VOL. FLUX                  1.048E-04   TIME AVG. VOL. FLUX   1.048E-04
 LARGEST RESIDUAL VOL. FLUX         4.785E-10   AT NODE       8410
   INSTANCE: SCALP-1                                                                         
 LARGEST INCREMENT OF PR. LM.       4.030E-04   AT NODE       8981
   INSTANCE: SCALP-1                                                                         
 LARGEST CORRECTION TO PR. LM.     -5.531E-07   AT NODE       3128
   INSTANCE: SCALP-1                                                                         
          THE VOL. FLUX EQUILIBRIUM EQUATIONS HAVE CONVERGED

  NUMBER OF EQUATIONS =     49130     NUMBER OF RHS =    1
  NUMBER OF FLOATING PT. OPERATIONS =  2.53E+09

     CHECK POINT   START OF SOLVER    

     CHECK POINT  END OF SOLVER       

       ELAPSED USER TIME (SEC)      =  0.60000    
       ELAPSED SYSTEM TIME (SEC)    =  3.00000E-02
       ELAPSED TOTAL CPU TIME (SEC) =  0.63000    
       ELAPSED WALLCLOCK TIME (SEC) =          0

               CONVERGENCE CHECKS FOR EQUILIBRIUM ITERATION     8


 AVERAGE FORCE                      3.465E-06   TIME AVG. FORCE       3.465E-06
 LARGEST RESIDUAL FORCE             1.578E-07   AT NODE       5930   DOF  2
   INSTANCE: SCALP-1                                                                         
 LARGEST INCREMENT OF DISP.        -0.749       AT NODE       2255   DOF  1
   INSTANCE: SCALP-1                                                                         
 LARGEST CORRECTION TO DISP.       -1.173E-05   AT NODE       6115   DOF  1
   INSTANCE: SCALP-1                                                                         
          FORCE     EQUILIBRIUM NOT ACHIEVED WITHIN TOLERANCE.

 AVERAGE MOMENT                      0.00       TIME AVG. MOMENT      6.016E-02
                                                (FROM FORCE     FIELD)
 ALL MOMENT    RESIDUALS ARE ZERO
 ALL ROTATION INCREMENTS ARE ZERO
 ALL CORRECTION TO ROTATION ARE ZERO
          THERE IS ZERO MOMENT    EVERYWHERE

 AVERAGE VOL. FLUX                  1.048E-04   TIME AVG. VOL. FLUX   1.048E-04
 LARGEST RESIDUAL VOL. FLUX         2.553E-11   AT NODE       5942
   INSTANCE: SCALP-1                                                                         
 LARGEST INCREMENT OF PR. LM.       4.030E-04   AT NODE       8981
   INSTANCE: SCALP-1                                                                         
 LARGEST CORRECTION TO PR. LM.     -3.057E-07   AT NODE       3574
   INSTANCE: SCALP-1                                                                         
          THE VOL. FLUX EQUILIBRIUM EQUATIONS HAVE CONVERGED

  NUMBER OF EQUATIONS =     49130     NUMBER OF RHS =    1
  NUMBER OF FLOATING PT. OPERATIONS =  2.53E+09

     CHECK POINT   START OF SOLVER    

     CHECK POINT  END OF SOLVER       

       ELAPSED USER TIME (SEC)      =  0.67000    
       ELAPSED SYSTEM TIME (SEC)    =  5.00000E-02
       ELAPSED TOTAL CPU TIME (SEC) =  0.72000    
       ELAPSED WALLCLOCK TIME (SEC) =          0

               CONVERGENCE CHECKS FOR EQUILIBRIUM ITERATION     9


 AVERAGE FORCE                      3.475E-06   TIME AVG. FORCE       3.475E-06
 LARGEST RESIDUAL FORCE            -2.053E-11   AT NODE       2255   DOF  2
   INSTANCE: SCALP-1                                                                         
 LARGEST INCREMENT OF DISP.        -0.749       AT NODE       2255   DOF  1
   INSTANCE: SCALP-1                                                                         
 LARGEST CORRECTION TO DISP.        6.905E-06   AT NODE       5930   DOF  2
   INSTANCE: SCALP-1                                                                         
          THE FORCE     EQUILIBRIUM EQUATIONS HAVE CONVERGED

 AVERAGE MOMENT                      0.00       TIME AVG. MOMENT      6.016E-02
                                                (FROM FORCE     FIELD)
 ALL MOMENT    RESIDUALS ARE ZERO
 ALL ROTATION INCREMENTS ARE ZERO
 ALL CORRECTION TO ROTATION ARE ZERO
          THERE IS ZERO MOMENT    EVERYWHERE

 AVERAGE VOL. FLUX                  1.048E-04   TIME AVG. VOL. FLUX   1.048E-04
 LARGEST RESIDUAL VOL. FLUX        -5.893E-12   AT NODE       2267
   INSTANCE: SCALP-1                                                                         
 LARGEST INCREMENT OF PR. LM.       4.030E-04   AT NODE       8981
   INSTANCE: SCALP-1                                                                         
 LARGEST CORRECTION TO PR. LM.     -3.058E-07   AT NODE       3574
   INSTANCE: SCALP-1                                                                         
          THE VOL. FLUX EQUILIBRIUM EQUATIONS HAVE CONVERGED

 ITERATION SUMMARY FOR THE INCREMENT:   9 TOTAL ITERATIONS, OF WHICH
   0 ARE SEVERE DISCONTINUITY ITERATIONS AND  9 ARE EQUILIBRIUM ITERATIONS.

 TIME INCREMENT COMPLETED  6.250E-03,  FRACTION OF STEP COMPLETED  6.250E-03
 STEP TIME COMPLETED       6.250E-03,  TOTAL TIME COMPLETED        6.250E-03


  INCREMENT     2 STARTS. ATTEMPT NUMBER  1, TIME INCREMENT  6.250E-03

  NUMBER OF EQUATIONS =     49130     NUMBER OF RHS =    1
  NUMBER OF FLOATING PT. OPERATIONS =  2.53E+09

     CHECK POINT   START OF SOLVER    

     CHECK POINT  END OF SOLVER       

       ELAPSED USER TIME (SEC)      =  0.63000    
       ELAPSED SYSTEM TIME (SEC)    =  7.00000E-02
       ELAPSED TOTAL CPU TIME (SEC) =  0.70000    
       ELAPSED WALLCLOCK TIME (SEC) =          0

               CONVERGENCE CHECKS FOR EQUILIBRIUM ITERATION     1


 AVERAGE FORCE                      2.470E-05   TIME AVG. FORCE       1.409E-05
 LARGEST RESIDUAL FORCE             -1.52       AT NODE       2255   DOF  2
   INSTANCE: SCALP-1                                                                         
 LARGEST INCREMENT OF DISP.        -0.937       AT NODE       2255   DOF  1
   INSTANCE: SCALP-1                                                                         
 LARGEST CORRECTION TO DISP.       -0.189       AT NODE       2255   DOF  1
   INSTANCE: SCALP-1                                                                         
          FORCE     EQUILIBRIUM NOT ACHIEVED WITHIN TOLERANCE.

 AVERAGE MOMENT                      0.00       TIME AVG. MOMENT      1.000E-02
 ALL MOMENT    RESIDUALS ARE ZERO
 ALL ROTATION INCREMENTS ARE ZERO
 ALL CORRECTION TO ROTATION ARE ZERO
          THERE IS ZERO MOMENT    EVERYWHERE

 AVERAGE VOL. FLUX                  4.589E-04   TIME AVG. VOL. FLUX   2.819E-04
 LARGEST RESIDUAL VOL. FLUX         1.158E-03   AT NODE       8399
   INSTANCE: SCALP-1                                                                         
 LARGEST INCREMENT OF PR. LM.       4.146E-04   AT NODE       8981
   INSTANCE: SCALP-1                                                                         
 LARGEST CORRECTION TO PR. LM.     -1.118E-04   AT NODE       2255
   INSTANCE: SCALP-1                                                                         
          VOL. FLUX EQUILIBRIUM NOT ACHIEVED WITHIN TOLERANCE.

  NUMBER OF EQUATIONS =     49130     NUMBER OF RHS =    1
  NUMBER OF FLOATING PT. OPERATIONS =  2.53E+09

     CHECK POINT   START OF SOLVER    

     CHECK POINT  END OF SOLVER       

       ELAPSED USER TIME (SEC)      =  0.63000    
       ELAPSED SYSTEM TIME (SEC)    =  6.00000E-02
       ELAPSED TOTAL CPU TIME (SEC) =  0.69000    
       ELAPSED WALLCLOCK TIME (SEC) =          0

               CONVERGENCE CHECKS FOR EQUILIBRIUM ITERATION     2


 AVERAGE FORCE                      8.353E-06   TIME AVG. FORCE       5.914E-06
 LARGEST RESIDUAL FORCE             4.062E-02   AT NODE       5934   DOF  2
   INSTANCE: SCALP-1                                                                         
 LARGEST INCREMENT OF DISP.        -0.912       AT NODE       2255   DOF  1
   INSTANCE: SCALP-1                                                                         
 LARGEST CORRECTION TO DISP.        2.515E-02   AT NODE       2255   DOF  1
   INSTANCE: SCALP-1                                                                         
          FORCE     EQUILIBRIUM NOT ACHIEVED WITHIN TOLERANCE.

 AVERAGE MOMENT                      0.00       TIME AVG. MOMENT      1.000E-02
 ALL MOMENT    RESIDUALS ARE ZERO
 ALL ROTATION INCREMENTS ARE ZERO
 ALL CORRECTION TO ROTATION ARE ZERO
          THERE IS ZERO MOMENT    EVERYWHERE

 AVERAGE VOL. FLUX                  4.561E-04   TIME AVG. VOL. FLUX   2.805E-04
 LARGEST RESIDUAL VOL. FLUX         1.842E-05   AT NODE       8399
   INSTANCE: SCALP-1                                                                         
 LARGEST INCREMENT OF PR. LM.       4.183E-04   AT NODE       8981
   INSTANCE: SCALP-1                                                                         
 LARGEST CORRECTION TO PR. LM.      2.521E-05   AT NODE       1422
   INSTANCE: SCALP-1                                                                         
          VOL. FLUX EQUILIBRIUM NOT ACHIEVED WITHIN TOLERANCE.

  NUMBER OF EQUATIONS =     49130     NUMBER OF RHS =    1
  NUMBER OF FLOATING PT. OPERATIONS =  2.53E+09

     CHECK POINT   START OF SOLVER    

     CHECK POINT  END OF SOLVER       

       ELAPSED USER TIME (SEC)      =  0.63000    
       ELAPSED SYSTEM TIME (SEC)    =  5.00000E-02
       ELAPSED TOTAL CPU TIME (SEC) =  0.68000    
       ELAPSED WALLCLOCK TIME (SEC) =          1

               CONVERGENCE CHECKS FOR EQUILIBRIUM ITERATION     3


 AVERAGE FORCE                      7.922E-06   TIME AVG. FORCE       5.699E-06
 LARGEST RESIDUAL FORCE             3.530E-05   AT NODE       6117   DOF  2
   INSTANCE: SCALP-1                                                                         
 LARGEST INCREMENT OF DISP.        -0.913       AT NODE       2255   DOF  1
   INSTANCE: SCALP-1                                                                         
 LARGEST CORRECTION TO DISP.       -3.424E-03   AT NODE       7144   DOF  1
   INSTANCE: SCALP-1                                                                         
          FORCE     EQUILIBRIUM NOT ACHIEVED WITHIN TOLERANCE.

 AVERAGE MOMENT                      0.00       TIME AVG. MOMENT      1.000E-02
 ALL MOMENT    RESIDUALS ARE ZERO
 ALL ROTATION INCREMENTS ARE ZERO
 ALL CORRECTION TO ROTATION ARE ZERO
          THERE IS ZERO MOMENT    EVERYWHERE

 AVERAGE VOL. FLUX                  4.565E-04   TIME AVG. VOL. FLUX   2.806E-04
 LARGEST RESIDUAL VOL. FLUX         9.415E-07   AT NODE       5998
   INSTANCE: SCALP-1                                                                         
 LARGEST INCREMENT OF PR. LM.       4.183E-04   AT NODE       8981
   INSTANCE: SCALP-1                                                                         
 LARGEST CORRECTION TO PR. LM.      1.632E-05   AT NODE      12141
   INSTANCE: SCALP-1                                                                         
 ESTIMATE OF PR. LM.  CORRECTION    8.342E-07
 VOL. FLUX EQUILIB. ACCEPTED BASED ON SMALL RESIDUAL AND ESTIMATED CORRECTION

  NUMBER OF EQUATIONS =     49130     NUMBER OF RHS =    1
  NUMBER OF FLOATING PT. OPERATIONS =  2.53E+09

     CHECK POINT   START OF SOLVER    

     CHECK POINT  END OF SOLVER       

       ELAPSED USER TIME (SEC)      =  0.62000    
       ELAPSED SYSTEM TIME (SEC)    =  3.00000E-02
       ELAPSED TOTAL CPU TIME (SEC) =  0.65000    
       ELAPSED WALLCLOCK TIME (SEC) =          1

               CONVERGENCE CHECKS FOR EQUILIBRIUM ITERATION     4


 AVERAGE FORCE                      7.931E-06   TIME AVG. FORCE       5.703E-06
 LARGEST RESIDUAL FORCE             2.019E-06   AT NODE        842   DOF  1
   INSTANCE: SCALP-1                                                                         
 LARGEST INCREMENT OF DISP.        -0.913       AT NODE       2255   DOF  1
   INSTANCE: SCALP-1                                                                         
 LARGEST CORRECTION TO DISP.        6.092E-04   AT NODE      12269   DOF  1
   INSTANCE: SCALP-1                                                                         
          FORCE     EQUILIBRIUM NOT ACHIEVED WITHIN TOLERANCE.

 AVERAGE MOMENT                      0.00       TIME AVG. MOMENT      1.000E-02
 ALL MOMENT    RESIDUALS ARE ZERO
 ALL ROTATION INCREMENTS ARE ZERO
 ALL CORRECTION TO ROTATION ARE ZERO
          THERE IS ZERO MOMENT    EVERYWHERE

 AVERAGE VOL. FLUX                  4.564E-04   TIME AVG. VOL. FLUX   2.806E-04
 LARGEST RESIDUAL VOL. FLUX         7.100E-08   AT NODE       6748
   INSTANCE: SCALP-1                                                                         
 LARGEST INCREMENT OF PR. LM.       4.183E-04   AT NODE       8981
   INSTANCE: SCALP-1                                                                         
 LARGEST CORRECTION TO PR. LM.      3.747E-06   AT NODE       6773
   INSTANCE: SCALP-1                                                                         
          THE VOL. FLUX EQUILIBRIUM EQUATIONS HAVE CONVERGED

  NUMBER OF EQUATIONS =     49130     NUMBER OF RHS =    1
  NUMBER OF FLOATING PT. OPERATIONS =  2.53E+09

     CHECK POINT   START OF SOLVER    

     CHECK POINT  END OF SOLVER       

       ELAPSED USER TIME (SEC)      =  0.63000    
       ELAPSED SYSTEM TIME (SEC)    =  6.00000E-02
       ELAPSED TOTAL CPU TIME (SEC) =  0.69000    
       ELAPSED WALLCLOCK TIME (SEC) =          1

               CONVERGENCE CHECKS FOR EQUILIBRIUM ITERATION     5


 AVERAGE FORCE                      7.939E-06   TIME AVG. FORCE       5.707E-06
 LARGEST RESIDUAL FORCE            -6.972E-08   AT NODE       2255   DOF  2
   INSTANCE: SCALP-1                                                                         
 LARGEST INCREMENT OF DISP.        -0.913       AT NODE       2255   DOF  1
   INSTANCE: SCALP-1                                                                         
 LARGEST CORRECTION TO DISP.       -3.937E-05   AT NODE       2255   DOF  1
   INSTANCE: SCALP-1                                                                         
          FORCE     EQUILIBRIUM NOT ACHIEVED WITHIN TOLERANCE.

 AVERAGE MOMENT                      0.00       TIME AVG. MOMENT      1.000E-02
 ALL MOMENT    RESIDUALS ARE ZERO
 ALL ROTATION INCREMENTS ARE ZERO
 ALL CORRECTION TO ROTATION ARE ZERO
          THERE IS ZERO MOMENT    EVERYWHERE

 AVERAGE VOL. FLUX                  4.564E-04   TIME AVG. VOL. FLUX   2.806E-04
 LARGEST RESIDUAL VOL. FLUX         3.428E-10   AT NODE       8400
   INSTANCE: SCALP-1                                                                         
 LARGEST INCREMENT OF PR. LM.       4.183E-04   AT NODE       8981
   INSTANCE: SCALP-1                                                                         
 LARGEST CORRECTION TO PR. LM.      3.446E-07   AT NODE       2261
   INSTANCE: SCALP-1                                                                         
          THE VOL. FLUX EQUILIBRIUM EQUATIONS HAVE CONVERGED

  NUMBER OF EQUATIONS =     49130     NUMBER OF RHS =    1
  NUMBER OF FLOATING PT. OPERATIONS =  2.53E+09

     CHECK POINT   START OF SOLVER    

     CHECK POINT  END OF SOLVER       

       ELAPSED USER TIME (SEC)      =  0.62000    
       ELAPSED SYSTEM TIME (SEC)    =  4.00000E-02
       ELAPSED TOTAL CPU TIME (SEC) =  0.66000    
       ELAPSED WALLCLOCK TIME (SEC) =          1

               CONVERGENCE CHECKS FOR EQUILIBRIUM ITERATION     6


 AVERAGE FORCE                      7.949E-06   TIME AVG. FORCE       5.712E-06
 LARGEST RESIDUAL FORCE             2.097E-11   AT NODE       5941   DOF  2
   INSTANCE: SCALP-1                                                                         
 LARGEST INCREMENT OF DISP.        -0.913       AT NODE       2255   DOF  1
   INSTANCE: SCALP-1                                                                         
 LARGEST CORRECTION TO DISP.       -3.872E-09   AT NODE       2255   DOF  1
   INSTANCE: SCALP-1                                                                         
          THE FORCE     EQUILIBRIUM EQUATIONS HAVE CONVERGED

 AVERAGE MOMENT                      0.00       TIME AVG. MOMENT      1.000E-02
 ALL MOMENT    RESIDUALS ARE ZERO
 ALL ROTATION INCREMENTS ARE ZERO
 ALL CORRECTION TO ROTATION ARE ZERO
          THERE IS ZERO MOMENT    EVERYWHERE

 AVERAGE VOL. FLUX                  4.564E-04   TIME AVG. VOL. FLUX   2.806E-04
 LARGEST RESIDUAL VOL. FLUX        -2.981E-14   AT NODE       4033
   INSTANCE: SCALP-1                                                                         
 LARGEST INCREMENT OF PR. LM.       4.183E-04   AT NODE       8981
   INSTANCE: SCALP-1                                                                         
 LARGEST CORRECTION TO PR. LM.     -3.058E-07   AT NODE       3574
   INSTANCE: SCALP-1                                                                         
          THE VOL. FLUX EQUILIBRIUM EQUATIONS HAVE CONVERGED

 ITERATION SUMMARY FOR THE INCREMENT:   6 TOTAL ITERATIONS, OF WHICH
   0 ARE SEVERE DISCONTINUITY ITERATIONS AND  6 ARE EQUILIBRIUM ITERATIONS.

 TIME INCREMENT COMPLETED  6.250E-03,  FRACTION OF STEP COMPLETED  1.250E-02
 STEP TIME COMPLETED       1.250E-02,  TOTAL TIME COMPLETED        1.250E-02


  INCREMENT     3 STARTS. ATTEMPT NUMBER  1, TIME INCREMENT  6.250E-03

  NUMBER OF EQUATIONS =     49130     NUMBER OF RHS =    1
  NUMBER OF FLOATING PT. OPERATIONS =  2.53E+09

     CHECK POINT   START OF SOLVER    

     CHECK POINT  END OF SOLVER       

       ELAPSED USER TIME (SEC)      =  0.63000    
       ELAPSED SYSTEM TIME (SEC)    =  5.00000E-02
       ELAPSED TOTAL CPU TIME (SEC) =  0.68000    
       ELAPSED WALLCLOCK TIME (SEC) =          0

               CONVERGENCE CHECKS FOR EQUILIBRIUM ITERATION     1


 AVERAGE FORCE                      3.709E-05   TIME AVG. FORCE       1.617E-05
 LARGEST RESIDUAL FORCE              1.71       AT NODE       5934   DOF  2
   INSTANCE: SCALP-1                                                                         
 LARGEST INCREMENT OF DISP.        -0.765       AT NODE       2255   DOF  1
   INSTANCE: SCALP-1                                                                         
 LARGEST CORRECTION TO DISP.        0.147       AT NODE       2255   DOF  1
   INSTANCE: SCALP-1                                                                         
          FORCE     EQUILIBRIUM NOT ACHIEVED WITHIN TOLERANCE.

 AVERAGE MOMENT                      0.00       TIME AVG. MOMENT      1.000E-02
 ALL MOMENT    RESIDUALS ARE ZERO
 ALL ROTATION INCREMENTS ARE ZERO
 ALL CORRECTION TO ROTATION ARE ZERO
          THERE IS ZERO MOMENT    EVERYWHERE

 AVERAGE VOL. FLUX                  6.796E-04   TIME AVG. VOL. FLUX   4.136E-04
 LARGEST RESIDUAL VOL. FLUX         9.842E-04   AT NODE       2258
   INSTANCE: SCALP-1                                                                         
 LARGEST INCREMENT OF PR. LM.       4.507E-04   AT NODE       8981
   INSTANCE: SCALP-1                                                                         
 LARGEST CORRECTION TO PR. LM.      7.274E-05   AT NODE       2258
   INSTANCE: SCALP-1                                                                         
          VOL. FLUX EQUILIBRIUM NOT ACHIEVED WITHIN TOLERANCE.

  NUMBER OF EQUATIONS =     49130     NUMBER OF RHS =    1
  NUMBER OF FLOATING PT. OPERATIONS =  2.53E+09

     CHECK POINT   START OF SOLVER    

     CHECK POINT  END OF SOLVER       

       ELAPSED USER TIME (SEC)      =  0.62000    
       ELAPSED SYSTEM TIME (SEC)    =  3.00000E-02
       ELAPSED TOTAL CPU TIME (SEC) =  0.65000    
       ELAPSED WALLCLOCK TIME (SEC) =          0

               CONVERGENCE CHECKS FOR EQUILIBRIUM ITERATION     2


 AVERAGE FORCE                      1.225E-05   TIME AVG. FORCE       7.890E-06
 LARGEST RESIDUAL FORCE             1.071E-03   AT NODE       5934   DOF  2
   INSTANCE: SCALP-1                                                                         
 LARGEST INCREMENT OF DISP.        -0.763       AT NODE       2255   DOF  1
   INSTANCE: SCALP-1                                                                         
 LARGEST CORRECTION TO DISP.        4.263E-03   AT NODE       2255   DOF  3
   INSTANCE: SCALP-1                                                                         
          FORCE     EQUILIBRIUM NOT ACHIEVED WITHIN TOLERANCE.

 AVERAGE MOMENT                      0.00       TIME AVG. MOMENT      1.000E-02
 ALL MOMENT    RESIDUALS ARE ZERO
 ALL ROTATION INCREMENTS ARE ZERO
 ALL CORRECTION TO ROTATION ARE ZERO
          THERE IS ZERO MOMENT    EVERYWHERE

 AVERAGE VOL. FLUX                  6.797E-04   TIME AVG. VOL. FLUX   4.136E-04
 LARGEST RESIDUAL VOL. FLUX         3.451E-06   AT NODE       8399
   INSTANCE: SCALP-1                                                                         
 LARGEST INCREMENT OF PR. LM.       4.522E-04   AT NODE       8981
   INSTANCE: SCALP-1                                                                         
 LARGEST CORRECTION TO PR. LM.     -5.583E-05   AT NODE       2258
   INSTANCE: SCALP-1                                                                         
          VOL. FLUX EQUILIBRIUM NOT ACHIEVED WITHIN TOLERANCE.

  NUMBER OF EQUATIONS =     49130     NUMBER OF RHS =    1
  NUMBER OF FLOATING PT. OPERATIONS =  2.53E+09

     CHECK POINT   START OF SOLVER    

     CHECK POINT  END OF SOLVER       

       ELAPSED USER TIME (SEC)      =  0.64000    
       ELAPSED SYSTEM TIME (SEC)    =  5.00000E-02
       ELAPSED TOTAL CPU TIME (SEC) =  0.69000    
       ELAPSED WALLCLOCK TIME (SEC) =          1

               CONVERGENCE CHECKS FOR EQUILIBRIUM ITERATION     3


 AVERAGE FORCE                      1.225E-05   TIME AVG. FORCE       7.890E-06
 LARGEST RESIDUAL FORCE            -2.800E-04   AT NODE       2255   DOF  2
   INSTANCE: SCALP-1                                                                         
 LARGEST INCREMENT OF DISP.        -0.761       AT NODE       2255   DOF  1
   INSTANCE: SCALP-1                                                                         
 LARGEST CORRECTION TO DISP.        2.226E-03   AT NODE       8398   DOF  1
   INSTANCE: SCALP-1                                                                         
          FORCE     EQUILIBRIUM NOT ACHIEVED WITHIN TOLERANCE.

 AVERAGE MOMENT                      0.00       TIME AVG. MOMENT      1.000E-02
 ALL MOMENT    RESIDUALS ARE ZERO
 ALL ROTATION INCREMENTS ARE ZERO
 ALL CORRECTION TO ROTATION ARE ZERO
          THERE IS ZERO MOMENT    EVERYWHERE

 AVERAGE VOL. FLUX                  6.797E-04   TIME AVG. VOL. FLUX   4.136E-04
 LARGEST RESIDUAL VOL. FLUX         4.860E-07   AT NODE       8399
   INSTANCE: SCALP-1                                                                         
 LARGEST INCREMENT OF PR. LM.       4.522E-04   AT NODE       8981
   INSTANCE: SCALP-1                                                                         
 LARGEST CORRECTION TO PR. LM.      2.828E-05   AT NODE       2255
   INSTANCE: SCALP-1                                                                         
 ESTIMATE OF PR. LM.  CORRECTION    3.983E-06
 VOL. FLUX EQUILIB. ACCEPTED BASED ON SMALL RESIDUAL AND ESTIMATED CORRECTION

  NUMBER OF EQUATIONS =     49130     NUMBER OF RHS =    1
  NUMBER OF FLOATING PT. OPERATIONS =  2.53E+09

     CHECK POINT   START OF SOLVER    

     CHECK POINT  END OF SOLVER       

       ELAPSED USER TIME (SEC)      =  0.61000    
       ELAPSED SYSTEM TIME (SEC)    =  3.00000E-02
       ELAPSED TOTAL CPU TIME (SEC) =  0.64000    
       ELAPSED WALLCLOCK TIME (SEC) =          0

               CONVERGENCE CHECKS FOR EQUILIBRIUM ITERATION     4


 AVERAGE FORCE                      1.226E-05   TIME AVG. FORCE       7.893E-06
 LARGEST RESIDUAL FORCE            -1.497E-06   AT NODE       8368   DOF  2
   INSTANCE: SCALP-1                                                                         
 LARGEST INCREMENT OF DISP.        -0.761       AT NODE       2255   DOF  1
   INSTANCE: SCALP-1                                                                         
 LARGEST CORRECTION TO DISP.        8.407E-05   AT NODE      12075   DOF  1
   INSTANCE: SCALP-1                                                                         
          FORCE     EQUILIBRIUM NOT ACHIEVED WITHIN TOLERANCE.

 AVERAGE MOMENT                      0.00       TIME AVG. MOMENT      1.000E-02
 ALL MOMENT    RESIDUALS ARE ZERO
 ALL ROTATION INCREMENTS ARE ZERO
 ALL CORRECTION TO ROTATION ARE ZERO
          THERE IS ZERO MOMENT    EVERYWHERE

 AVERAGE VOL. FLUX                  6.798E-04   TIME AVG. VOL. FLUX   4.136E-04
 LARGEST RESIDUAL VOL. FLUX         3.867E-09   AT NODE       8406
   INSTANCE: SCALP-1                                                                         
 LARGEST INCREMENT OF PR. LM.       4.522E-04   AT NODE       8981
   INSTANCE: SCALP-1                                                                         
 LARGEST CORRECTION TO PR. LM.      1.930E-06   AT NODE       2242
   INSTANCE: SCALP-1                                                                         
          THE VOL. FLUX EQUILIBRIUM EQUATIONS HAVE CONVERGED

  NUMBER OF EQUATIONS =     49130     NUMBER OF RHS =    1
  NUMBER OF FLOATING PT. OPERATIONS =  2.53E+09

     CHECK POINT   START OF SOLVER    

     CHECK POINT  END OF SOLVER       

       ELAPSED USER TIME (SEC)      =  0.61000    
       ELAPSED SYSTEM TIME (SEC)    =  3.00000E-02
       ELAPSED TOTAL CPU TIME (SEC) =  0.64000    
       ELAPSED WALLCLOCK TIME (SEC) =          1

               CONVERGENCE CHECKS FOR EQUILIBRIUM ITERATION     5


 AVERAGE FORCE                      1.227E-05   TIME AVG. FORCE       7.897E-06
 LARGEST RESIDUAL FORCE             1.981E-08   AT NODE       5934   DOF  2
   INSTANCE: SCALP-1                                                                         
 LARGEST INCREMENT OF DISP.        -0.761       AT NODE       2255   DOF  1
   INSTANCE: SCALP-1                                                                         
 LARGEST CORRECTION TO DISP.        3.283E-05   AT NODE      12075   DOF  1
   INSTANCE: SCALP-1                                                                         
          THE FORCE     EQUILIBRIUM EQUATIONS HAVE CONVERGED

 AVERAGE MOMENT                      0.00       TIME AVG. MOMENT      1.000E-02
 ALL MOMENT    RESIDUALS ARE ZERO
 ALL ROTATION INCREMENTS ARE ZERO
 ALL CORRECTION TO ROTATION ARE ZERO
          THERE IS ZERO MOMENT    EVERYWHERE

 AVERAGE VOL. FLUX                  6.798E-04   TIME AVG. VOL. FLUX   4.136E-04
 LARGEST RESIDUAL VOL. FLUX         2.561E-10   AT NODE       2260
   INSTANCE: SCALP-1                                                                         
 LARGEST INCREMENT OF PR. LM.       4.522E-04   AT NODE       8981
   INSTANCE: SCALP-1                                                                         
 LARGEST CORRECTION TO PR. LM.     -3.058E-07   AT NODE       3574
   INSTANCE: SCALP-1                                                                         
          THE VOL. FLUX EQUILIBRIUM EQUATIONS HAVE CONVERGED

 ITERATION SUMMARY FOR THE INCREMENT:   5 TOTAL ITERATIONS, OF WHICH
   0 ARE SEVERE DISCONTINUITY ITERATIONS AND  5 ARE EQUILIBRIUM ITERATIONS.

 TIME INCREMENT COMPLETED  6.250E-03,  FRACTION OF STEP COMPLETED  1.875E-02
 STEP TIME COMPLETED       1.875E-02,  TOTAL TIME COMPLETED        1.875E-02


  INCREMENT     4 STARTS. ATTEMPT NUMBER  1, TIME INCREMENT  6.250E-03

  NUMBER OF EQUATIONS =     49130     NUMBER OF RHS =    1
  NUMBER OF FLOATING PT. OPERATIONS =  2.53E+09

     CHECK POINT   START OF SOLVER    

     CHECK POINT  END OF SOLVER       

       ELAPSED USER TIME (SEC)      =  0.60000    
       ELAPSED SYSTEM TIME (SEC)    =  3.00000E-02
       ELAPSED TOTAL CPU TIME (SEC) =  0.63000    
       ELAPSED WALLCLOCK TIME (SEC) =          0

               CONVERGENCE CHECKS FOR EQUILIBRIUM ITERATION     1


 AVERAGE FORCE                      3.504E-05   TIME AVG. FORCE       1.468E-05
 LARGEST RESIDUAL FORCE             -1.29       AT NODE       2255   DOF  2
   INSTANCE: SCALP-1                                                                         
 LARGEST INCREMENT OF DISP.        -0.621       AT NODE       8442   DOF  1
   INSTANCE: SCALP-1                                                                         
 LARGEST CORRECTION TO DISP.        0.145       AT NODE       2255   DOF  1
   INSTANCE: SCALP-1                                                                         
          FORCE     EQUILIBRIUM NOT ACHIEVED WITHIN TOLERANCE.

 AVERAGE MOMENT                      0.00       TIME AVG. MOMENT      1.000E-02
 ALL MOMENT    RESIDUALS ARE ZERO
 ALL ROTATION INCREMENTS ARE ZERO
 ALL CORRECTION TO ROTATION ARE ZERO
          THERE IS ZERO MOMENT    EVERYWHERE

 AVERAGE VOL. FLUX                  9.063E-04   TIME AVG. VOL. FLUX   5.368E-04
 LARGEST RESIDUAL VOL. FLUX         5.853E-04   AT NODE       2258
   INSTANCE: SCALP-1                                                                         
 LARGEST INCREMENT OF PR. LM.       4.888E-04   AT NODE       8981
   INSTANCE: SCALP-1                                                                         
 LARGEST CORRECTION TO PR. LM.     -4.220E-05   AT NODE       8398
   INSTANCE: SCALP-1                                                                         
          VOL. FLUX EQUILIBRIUM NOT ACHIEVED WITHIN TOLERANCE.

  NUMBER OF EQUATIONS =     49130     NUMBER OF RHS =    1
  NUMBER OF FLOATING PT. OPERATIONS =  2.53E+09

     CHECK POINT   START OF SOLVER    

     CHECK POINT  END OF SOLVER       

       ELAPSED USER TIME (SEC)      =  0.60000    
       ELAPSED SYSTEM TIME (SEC)    =  3.00000E-02
       ELAPSED TOTAL CPU TIME (SEC) =  0.63000    
       ELAPSED WALLCLOCK TIME (SEC) =          1

               CONVERGENCE CHECKS FOR EQUILIBRIUM ITERATION     2


 AVERAGE FORCE                      1.692E-05   TIME AVG. FORCE       1.015E-05
 LARGEST RESIDUAL FORCE            -6.980E-04   AT NODE       2255   DOF  2
   INSTANCE: SCALP-1                                                                         
 LARGEST INCREMENT OF DISP.        -0.620       AT NODE       8442   DOF  1
   INSTANCE: SCALP-1                                                                         
 LARGEST CORRECTION TO DISP.        3.916E-03   AT NODE       2255   DOF  1
   INSTANCE: SCALP-1                                                                         
          FORCE     EQUILIBRIUM NOT ACHIEVED WITHIN TOLERANCE.

 AVERAGE MOMENT                      0.00       TIME AVG. MOMENT      1.000E-02
 ALL MOMENT    RESIDUALS ARE ZERO
 ALL ROTATION INCREMENTS ARE ZERO
 ALL CORRECTION TO ROTATION ARE ZERO
          THERE IS ZERO MOMENT    EVERYWHERE

 AVERAGE VOL. FLUX                  9.058E-04   TIME AVG. VOL. FLUX   5.367E-04
 LARGEST RESIDUAL VOL. FLUX         1.484E-06   AT NODE       2258
   INSTANCE: SCALP-1                                                                         
 LARGEST INCREMENT OF PR. LM.       4.889E-04   AT NODE       8981
   INSTANCE: SCALP-1                                                                         
 LARGEST CORRECTION TO PR. LM.      1.556E-05   AT NODE       8398
   INSTANCE: SCALP-1                                                                         
 ESTIMATE OF PR. LM.  CORRECTION    3.946E-08
 VOL. FLUX EQUILIB. ACCEPTED BASED ON SMALL RESIDUAL AND ESTIMATED CORRECTION

  NUMBER OF EQUATIONS =     49130     NUMBER OF RHS =    1
  NUMBER OF FLOATING PT. OPERATIONS =  2.53E+09

     CHECK POINT   START OF SOLVER    

     CHECK POINT  END OF SOLVER       

       ELAPSED USER TIME (SEC)      =  0.61000    
       ELAPSED SYSTEM TIME (SEC)    =  5.00000E-02
       ELAPSED TOTAL CPU TIME (SEC) =  0.66000    
       ELAPSED WALLCLOCK TIME (SEC) =          1

               CONVERGENCE CHECKS FOR EQUILIBRIUM ITERATION     3


 AVERAGE FORCE                      1.692E-05   TIME AVG. FORCE       1.015E-05
 LARGEST RESIDUAL FORCE             1.471E-05   AT NODE       7175   DOF  2
   INSTANCE: SCALP-1                                                                         
 LARGEST INCREMENT OF DISP.        -0.620       AT NODE       8442   DOF  1
   INSTANCE: SCALP-1                                                                         
 LARGEST CORRECTION TO DISP.        5.753E-04   AT NODE       2255   DOF  1
   INSTANCE: SCALP-1                                                                         
          FORCE     EQUILIBRIUM NOT ACHIEVED WITHIN TOLERANCE.

 AVERAGE MOMENT                      0.00       TIME AVG. MOMENT      1.000E-02
 ALL MOMENT    RESIDUALS ARE ZERO
 ALL ROTATION INCREMENTS ARE ZERO
 ALL CORRECTION TO ROTATION ARE ZERO
          THERE IS ZERO MOMENT    EVERYWHERE

 AVERAGE VOL. FLUX                  9.057E-04   TIME AVG. VOL. FLUX   5.367E-04
 LARGEST RESIDUAL VOL. FLUX         7.526E-08   AT NODE       8383
   INSTANCE: SCALP-1                                                                         
 LARGEST INCREMENT OF PR. LM.       4.889E-04   AT NODE       8981
   INSTANCE: SCALP-1                                                                         
 LARGEST CORRECTION TO PR. LM.      4.686E-06   AT NODE       7175
   INSTANCE: SCALP-1                                                                         
          THE VOL. FLUX EQUILIBRIUM EQUATIONS HAVE CONVERGED

  NUMBER OF EQUATIONS =     49130     NUMBER OF RHS =    1
  NUMBER OF FLOATING PT. OPERATIONS =  2.53E+09

     CHECK POINT   START OF SOLVER    

     CHECK POINT  END OF SOLVER       

       ELAPSED USER TIME (SEC)      =  0.61000    
       ELAPSED SYSTEM TIME (SEC)    =  2.00000E-02
       ELAPSED TOTAL CPU TIME (SEC) =  0.63000    
       ELAPSED WALLCLOCK TIME (SEC) =          1

               CONVERGENCE CHECKS FOR EQUILIBRIUM ITERATION     4


 AVERAGE FORCE                      1.694E-05   TIME AVG. FORCE       1.016E-05
 LARGEST RESIDUAL FORCE             7.889E-10   AT NODE       5941   DOF  2
   INSTANCE: SCALP-1                                                                         
 LARGEST INCREMENT OF DISP.        -0.620       AT NODE       8442   DOF  1
   INSTANCE: SCALP-1                                                                         
 LARGEST CORRECTION TO DISP.        5.093E-05   AT NODE       7175   DOF  2
   INSTANCE: SCALP-1                                                                         
          THE FORCE     EQUILIBRIUM EQUATIONS HAVE CONVERGED

 AVERAGE MOMENT                      0.00       TIME AVG. MOMENT      1.000E-02
 ALL MOMENT    RESIDUALS ARE ZERO
 ALL ROTATION INCREMENTS ARE ZERO
 ALL CORRECTION TO ROTATION ARE ZERO
          THERE IS ZERO MOMENT    EVERYWHERE

 AVERAGE VOL. FLUX                  9.058E-04   TIME AVG. VOL. FLUX   5.367E-04
 LARGEST RESIDUAL VOL. FLUX         1.176E-09   AT NODE       7174
   INSTANCE: SCALP-1                                                                         
 LARGEST INCREMENT OF PR. LM.       4.889E-04   AT NODE       8981
   INSTANCE: SCALP-1                                                                         
 LARGEST CORRECTION TO PR. LM.     -5.548E-07   AT NODE      12116
   INSTANCE: SCALP-1                                                                         
          THE VOL. FLUX EQUILIBRIUM EQUATIONS HAVE CONVERGED

 ITERATION SUMMARY FOR THE INCREMENT:   4 TOTAL ITERATIONS, OF WHICH
   0 ARE SEVERE DISCONTINUITY ITERATIONS AND  4 ARE EQUILIBRIUM ITERATIONS.

 TIME INCREMENT COMPLETED  6.250E-03,  FRACTION OF STEP COMPLETED  2.500E-02
 STEP TIME COMPLETED       2.500E-02,  TOTAL TIME COMPLETED        2.500E-02


  INCREMENT     5 STARTS. ATTEMPT NUMBER  1, TIME INCREMENT  6.250E-03

  NUMBER OF EQUATIONS =     49130     NUMBER OF RHS =    1
  NUMBER OF FLOATING PT. OPERATIONS =  2.53E+09

     CHECK POINT   START OF SOLVER    

     CHECK POINT  END OF SOLVER       

       ELAPSED USER TIME (SEC)      =  0.64000    
       ELAPSED SYSTEM TIME (SEC)    =  3.00000E-02
       ELAPSED TOTAL CPU TIME (SEC) =  0.67000    
       ELAPSED WALLCLOCK TIME (SEC) =          0

               CONVERGENCE CHECKS FOR EQUILIBRIUM ITERATION     1


 AVERAGE FORCE                      2.800E-05   TIME AVG. FORCE       1.373E-05
 LARGEST RESIDUAL FORCE             0.411       AT NODE       5934   DOF  2
   INSTANCE: SCALP-1                                                                         
 LARGEST INCREMENT OF DISP.        -0.587       AT NODE       8412   DOF  1
   INSTANCE: SCALP-1                                                                         
 LARGEST CORRECTION TO DISP.        8.639E-02   AT NODE       2255   DOF  1
   INSTANCE: SCALP-1                                                                         
          FORCE     EQUILIBRIUM NOT ACHIEVED WITHIN TOLERANCE.

 AVERAGE MOMENT                      0.00       TIME AVG. MOMENT      1.000E-02
 ALL MOMENT    RESIDUALS ARE ZERO
 ALL ROTATION INCREMENTS ARE ZERO
 ALL CORRECTION TO ROTATION ARE ZERO
          THERE IS ZERO MOMENT    EVERYWHERE

 AVERAGE VOL. FLUX                  1.139E-03   TIME AVG. VOL. FLUX   6.571E-04
 LARGEST RESIDUAL VOL. FLUX         2.210E-04   AT NODE       2258
   INSTANCE: SCALP-1                                                                         
 LARGEST INCREMENT OF PR. LM.       5.276E-04   AT NODE       8981
   INSTANCE: SCALP-1                                                                         
 LARGEST CORRECTION TO PR. LM.      4.114E-05   AT NODE       7904
   INSTANCE: SCALP-1                                                                         
          VOL. FLUX EQUILIBRIUM NOT ACHIEVED WITHIN TOLERANCE.

  NUMBER OF EQUATIONS =     49130     NUMBER OF RHS =    1
  NUMBER OF FLOATING PT. OPERATIONS =  2.53E+09

     CHECK POINT   START OF SOLVER    

     CHECK POINT  END OF SOLVER       

       ELAPSED USER TIME (SEC)      =  0.60000    
       ELAPSED SYSTEM TIME (SEC)    =  3.00000E-02
       ELAPSED TOTAL CPU TIME (SEC) =  0.63000    
       ELAPSED WALLCLOCK TIME (SEC) =          0

               CONVERGENCE CHECKS FOR EQUILIBRIUM ITERATION     2


 AVERAGE FORCE                      2.198E-05   TIME AVG. FORCE       1.252E-05
 LARGEST RESIDUAL FORCE             1.368E-04   AT NODE       5934   DOF  2
   INSTANCE: SCALP-1                                                                         
 LARGEST INCREMENT OF DISP.        -0.585       AT NODE       8412   DOF  1
   INSTANCE: SCALP-1                                                                         
 LARGEST CORRECTION TO DISP.        2.050E-03   AT NODE      12079   DOF  1
   INSTANCE: SCALP-1                                                                         
          FORCE     EQUILIBRIUM NOT ACHIEVED WITHIN TOLERANCE.

 AVERAGE MOMENT                      0.00       TIME AVG. MOMENT      1.000E-02
 ALL MOMENT    RESIDUALS ARE ZERO
 ALL ROTATION INCREMENTS ARE ZERO
 ALL CORRECTION TO ROTATION ARE ZERO
          THERE IS ZERO MOMENT    EVERYWHERE

 AVERAGE VOL. FLUX                  1.139E-03   TIME AVG. VOL. FLUX   6.571E-04
 LARGEST RESIDUAL VOL. FLUX         3.458E-07   AT NODE        972
   INSTANCE: SCALP-1                                                                         
 LARGEST INCREMENT OF PR. LM.       5.278E-04   AT NODE       8981
   INSTANCE: SCALP-1                                                                         
 LARGEST CORRECTION TO PR. LM.     -1.317E-05   AT NODE       5956
   INSTANCE: SCALP-1                                                                         
 ESTIMATE OF PR. LM.  CORRECTION   -2.060E-08
 VOL. FLUX EQUILIB. ACCEPTED BASED ON SMALL RESIDUAL AND ESTIMATED CORRECTION

  NUMBER OF EQUATIONS =     49130     NUMBER OF RHS =    1
  NUMBER OF FLOATING PT. OPERATIONS =  2.53E+09

     CHECK POINT   START OF SOLVER    

     CHECK POINT  END OF SOLVER       

       ELAPSED USER TIME (SEC)      =  0.64000    
       ELAPSED SYSTEM TIME (SEC)    =  3.00000E-02
       ELAPSED TOTAL CPU TIME (SEC) =  0.67000    
       ELAPSED WALLCLOCK TIME (SEC) =          0

               CONVERGENCE CHECKS FOR EQUILIBRIUM ITERATION     3


 AVERAGE FORCE                      2.199E-05   TIME AVG. FORCE       1.252E-05
 LARGEST RESIDUAL FORCE             7.299E-07   AT NODE       8411   DOF  2
   INSTANCE: SCALP-1                                                                         
 LARGEST INCREMENT OF DISP.        -0.585       AT NODE       8412   DOF  1
   INSTANCE: SCALP-1                                                                         
 LARGEST CORRECTION TO DISP.       -2.919E-04   AT NODE       7144   DOF  1
   INSTANCE: SCALP-1                                                                         
          FORCE     EQUILIBRIUM NOT ACHIEVED WITHIN TOLERANCE.

 AVERAGE MOMENT                      0.00       TIME AVG. MOMENT      1.000E-02
 ALL MOMENT    RESIDUALS ARE ZERO
 ALL ROTATION INCREMENTS ARE ZERO
 ALL CORRECTION TO ROTATION ARE ZERO
          THERE IS ZERO MOMENT    EVERYWHERE

 AVERAGE VOL. FLUX                  1.139E-03   TIME AVG. VOL. FLUX   6.571E-04
 LARGEST RESIDUAL VOL. FLUX         1.976E-08   AT NODE       1032
   INSTANCE: SCALP-1                                                                         
 LARGEST INCREMENT OF PR. LM.       5.279E-04   AT NODE       8981
   INSTANCE: SCALP-1                                                                         
 LARGEST CORRECTION TO PR. LM.     -2.694E-06   AT NODE       7139
   INSTANCE: SCALP-1                                                                         
          THE VOL. FLUX EQUILIBRIUM EQUATIONS HAVE CONVERGED

  NUMBER OF EQUATIONS =     49130     NUMBER OF RHS =    1
  NUMBER OF FLOATING PT. OPERATIONS =  2.53E+09

     CHECK POINT   START OF SOLVER    

     CHECK POINT  END OF SOLVER       

       ELAPSED USER TIME (SEC)      =  0.63000    
       ELAPSED SYSTEM TIME (SEC)    =  4.00000E-02
       ELAPSED TOTAL CPU TIME (SEC) =  0.67000    
       ELAPSED WALLCLOCK TIME (SEC) =          1

               CONVERGENCE CHECKS FOR EQUILIBRIUM ITERATION     4


 AVERAGE FORCE                      2.200E-05   TIME AVG. FORCE       1.252E-05
 LARGEST RESIDUAL FORCE             5.492E-08   AT NODE        871   DOF  1
   INSTANCE: SCALP-1                                                                         
 LARGEST INCREMENT OF DISP.        -0.585       AT NODE       8412   DOF  1
   INSTANCE: SCALP-1                                                                         
 LARGEST CORRECTION TO DISP.        3.927E-05   AT NODE       5987   DOF  2
   INSTANCE: SCALP-1                                                                         
          THE FORCE     EQUILIBRIUM EQUATIONS HAVE CONVERGED

[...]
 LARGEST CORRECTION TO ROTATION     1.408E-32   AT NODE       2048   DOF  5
   INSTANCE: SKULL-1                                                                         
          THE MOMENT    EQUILIBRIUM EQUATIONS HAVE CONVERGED

 AVERAGE VOL. FLUX                  3.842E-02   TIME AVG. VOL. FLUX   3.782E-02
 LARGEST RESIDUAL VOL. FLUX        -2.981E-14   AT NODE       4033
   INSTANCE: SCALP-1                                                                         
 LARGEST INCREMENT OF PR. LM.       -5.65       AT NODE        567
   INSTANCE: SCALP-1                                                                         
 LARGEST CORRECTION TO PR. LM.     -3.057E-07   AT NODE       3574
   INSTANCE: SCALP-1                                                                         
          THE VOL. FLUX EQUILIBRIUM EQUATIONS HAVE CONVERGED

 ITERATION SUMMARY FOR THE INCREMENT:   8 TOTAL ITERATIONS, OF WHICH
   2 ARE SEVERE DISCONTINUITY ITERATIONS AND  6 ARE EQUILIBRIUM ITERATIONS.

 TIME INCREMENT COMPLETED  0.141    ,  FRACTION OF STEP COMPLETED  0.984    
 STEP TIME COMPLETED       0.984    ,  TOTAL TIME COMPLETED         2.98    


  INCREMENT     8 STARTS. ATTEMPT NUMBER  1, TIME INCREMENT  1.562E-02

  NUMBER OF EQUATIONS =     49410     NUMBER OF RHS =    1
  NUMBER OF FLOATING PT. OPERATIONS =  2.90E+09

     CHECK POINT   START OF SOLVER    

     CHECK POINT  END OF SOLVER       

       ELAPSED USER TIME (SEC)      =  0.67000    
       ELAPSED SYSTEM TIME (SEC)    =  5.00000E-02
       ELAPSED TOTAL CPU TIME (SEC) =  0.72000    
       ELAPSED WALLCLOCK TIME (SEC) =          1

                    1 SEVERE DISCONTINUITIES OCCURRED DURING THIS ITERATION.
                    1 POINTS CHANGED FROM OPEN TO CLOSED

               CONVERGENCE CHECKS FOR SEVERE DISCONTINUITY ITERATION     1

   MAX. PENETRATION ERROR 488.758E-06   AT NODE SCALP-1.6782 OF CONTACT PAIR 
   (ASSEMBLY_SURF-SCALP,ASSEMBLY_SURF-SKULL)
          THE CONTACT CONSTRAINT ERRORS ARE WITHIN THE TOLERANCES.

 AVERAGE FORCE                      0.124       TIME AVG. FORCE       0.113    
 LARGEST RESIDUAL FORCE              40.4       AT NODE       6018   DOF  1
   INSTANCE: SCALP-1                                                                         
 LARGEST INCREMENT OF DISP.        -0.212       AT NODE        629   DOF  3
   INSTANCE: SCALP-1                                                                         
 LARGEST CORRECTION TO DISP.       -8.849E-02   AT NODE        602   DOF  3
   INSTANCE: SCALP-1                                                                         
          FORCE     EQUILIBRIUM NOT ACHIEVED WITHIN TOLERANCE.

 AVERAGE MOMENT                      103.       TIME AVG. MOMENT       44.4    
 ALL MOMENT    RESIDUALS ARE ZERO
 LARGEST INCREMENT OF ROTATION     -9.833E-32   AT NODE       2048   DOF  5
   INSTANCE: SKULL-1                                                                         
 LARGEST CORRECTION TO ROTATION    -1.048E-31   AT NODE       2048   DOF  5
   INSTANCE: SKULL-1                                                                         
          THE MOMENT    EQUILIBRIUM EQUATIONS HAVE CONVERGED

 AVERAGE VOL. FLUX                  3.851E-02   TIME AVG. VOL. FLUX   3.791E-02
 LARGEST RESIDUAL VOL. FLUX         4.391E-03   AT NODE       6718
   INSTANCE: SCALP-1                                                                         
 LARGEST INCREMENT OF PR. LM.      -0.653       AT NODE        567
   INSTANCE: SCALP-1                                                                         
 LARGEST CORRECTION TO PR. LM.      0.458       AT NODE        602
   INSTANCE: SCALP-1                                                                         
          VOL. FLUX EQUILIBRIUM NOT ACHIEVED WITHIN TOLERANCE.

  NUMBER OF EQUATIONS =     49411     NUMBER OF RHS =    1
  NUMBER OF FLOATING PT. OPERATIONS =  2.90E+09

     CHECK POINT   START OF SOLVER    

     CHECK POINT  END OF SOLVER       

       ELAPSED USER TIME (SEC)      =  0.66000    
       ELAPSED SYSTEM TIME (SEC)    =  4.00000E-02
       ELAPSED TOTAL CPU TIME (SEC) =  0.70000    
       ELAPSED WALLCLOCK TIME (SEC) =          0

               CONVERGENCE CHECKS FOR EQUILIBRIUM ITERATION     1

   MAX. PENETRATION ERROR 612.542E-06   AT NODE SCALP-1.6782 OF CONTACT PAIR 
   (ASSEMBLY_SURF-SCALP,ASSEMBLY_SURF-SKULL)
          THE CONTACT CONSTRAINTS HAVE CONVERGED.

 AVERAGE FORCE                      0.125       TIME AVG. FORCE       0.113    
 LARGEST RESIDUAL FORCE             -33.8       AT NODE       6905   DOF  1
   INSTANCE: SCALP-1                                                                         
 LARGEST INCREMENT OF DISP.        -0.230       AT NODE        629   DOF  3
   INSTANCE: SCALP-1                                                                         
 LARGEST CORRECTION TO DISP.       -5.180E-02   AT NODE       6018   DOF  3
   INSTANCE: SCALP-1                                                                         
          FORCE     EQUILIBRIUM NOT ACHIEVED WITHIN TOLERANCE.

 AVERAGE MOMENT                      180.       TIME AVG. MOMENT       54.0    
 ALL MOMENT    RESIDUALS ARE ZERO
 LARGEST INCREMENT OF ROTATION     -8.416E-32   AT NODE       2048   DOF  5
   INSTANCE: SKULL-1                                                                         
 LARGEST CORRECTION TO ROTATION     1.416E-32   AT NODE       2048   DOF  5
   INSTANCE: SKULL-1                                                                         
          THE MOMENT    EQUILIBRIUM RESPONSE WAS LINEAR IN THIS INCREMENT

 AVERAGE VOL. FLUX                  3.852E-02   TIME AVG. VOL. FLUX   3.791E-02
 LARGEST RESIDUAL VOL. FLUX         2.855E-04   AT NODE        655
   INSTANCE: SCALP-1                                                                         
 LARGEST INCREMENT OF PR. LM.      -0.784       AT NODE        601
   INSTANCE: SCALP-1                                                                         
 LARGEST CORRECTION TO PR. LM.     -0.154       AT NODE        601
   INSTANCE: SCALP-1                                                                         
          VOL. FLUX EQUILIBRIUM NOT ACHIEVED WITHIN TOLERANCE.

  NUMBER OF EQUATIONS =     49411     NUMBER OF RHS =    1
  NUMBER OF FLOATING PT. OPERATIONS =  2.90E+09

     CHECK POINT   START OF SOLVER    

     CHECK POINT  END OF SOLVER       

       ELAPSED USER TIME (SEC)      =  0.67000    
       ELAPSED SYSTEM TIME (SEC)    =  4.00000E-02
       ELAPSED TOTAL CPU TIME (SEC) =  0.71000    
       ELAPSED WALLCLOCK TIME (SEC) =          0

               CONVERGENCE CHECKS FOR EQUILIBRIUM ITERATION     2

   MAX. PENETRATION ERROR 17.1709E-06  AT NODE SCALP-1.6782 OF CONTACT PAIR 
   (ASSEMBLY_SURF-SCALP,ASSEMBLY_SURF-SKULL)
          THE CONTACT CONSTRAINTS HAVE CONVERGED.

 AVERAGE FORCE                      0.122       TIME AVG. FORCE       0.113    
 LARGEST RESIDUAL FORCE              5.99       AT NODE       6023   DOF  2
   INSTANCE: SCALP-1                                                                         
 LARGEST INCREMENT OF DISP.        -0.238       AT NODE        629   DOF  3
   INSTANCE: SCALP-1                                                                         
 LARGEST CORRECTION TO DISP.       -1.928E-02   AT NODE      12165   DOF  2
   INSTANCE: SCALP-1                                                                         
          FORCE     EQUILIBRIUM NOT ACHIEVED WITHIN TOLERANCE.

 AVERAGE MOMENT                      41.0       TIME AVG. MOMENT       36.7    
 ALL MOMENT    RESIDUALS ARE ZERO
 LARGEST INCREMENT OF ROTATION     -7.000E-32   AT NODE       2048   DOF  5
   INSTANCE: SKULL-1                                                                         
 LARGEST CORRECTION TO ROTATION     1.416E-32   AT NODE       2048   DOF  5
   INSTANCE: SKULL-1                                                                         
          THE MOMENT    EQUILIBRIUM EQUATIONS HAVE CONVERGED

 AVERAGE VOL. FLUX                  3.853E-02   TIME AVG. VOL. FLUX   3.791E-02
 LARGEST RESIDUAL VOL. FLUX         1.955E-04   AT NODE       6718
   INSTANCE: SCALP-1                                                                         
 LARGEST INCREMENT OF PR. LM.      -0.828       AT NODE        601
   INSTANCE: SCALP-1                                                                         
 LARGEST CORRECTION TO PR. LM.      9.596E-02   AT NODE        602
   INSTANCE: SCALP-1                                                                         
          VOL. FLUX EQUILIBRIUM NOT ACHIEVED WITHIN TOLERANCE.

  NUMBER OF EQUATIONS =     49411     NUMBER OF RHS =    1
  NUMBER OF FLOATING PT. OPERATIONS =  2.90E+09

     CHECK POINT   START OF SOLVER    

     CHECK POINT  END OF SOLVER       

       ELAPSED USER TIME (SEC)      =  0.66000    
       ELAPSED SYSTEM TIME (SEC)    =  3.00000E-02
       ELAPSED TOTAL CPU TIME (SEC) =  0.69000    
       ELAPSED WALLCLOCK TIME (SEC) =          0

               CONVERGENCE CHECKS FOR EQUILIBRIUM ITERATION     3

   MAX. PENETRATION ERROR 35.2403E-06  AT NODE SCALP-1.6782 OF CONTACT PAIR 
   (ASSEMBLY_SURF-SCALP,ASSEMBLY_SURF-SKULL)
          THE CONTACT CONSTRAINTS HAVE CONVERGED.

 AVERAGE FORCE                      0.121       TIME AVG. FORCE       0.113    
 LARGEST RESIDUAL FORCE             -1.88       AT NODE       6905   DOF  1
   INSTANCE: SCALP-1                                                                         
 LARGEST INCREMENT OF DISP.        -0.239       AT NODE        629   DOF  3
   INSTANCE: SCALP-1                                                                         
 LARGEST CORRECTION TO DISP.       -6.994E-03   AT NODE       6018   DOF  3
   INSTANCE: SCALP-1                                                                         
          FORCE     EQUILIBRIUM NOT ACHIEVED WITHIN TOLERANCE.

 AVERAGE MOMENT                      41.9       TIME AVG. MOMENT       36.8    
 ALL MOMENT    RESIDUALS ARE ZERO
 LARGEST INCREMENT OF ROTATION     -5.583E-32   AT NODE       2048   DOF  5
   INSTANCE: SKULL-1                                                                         
 LARGEST CORRECTION TO ROTATION     1.417E-32   AT NODE       2048   DOF  5
   INSTANCE: SKULL-1                                                                         
          THE MOMENT    EQUILIBRIUM EQUATIONS HAVE CONVERGED

 AVERAGE VOL. FLUX                  3.853E-02   TIME AVG. VOL. FLUX   3.791E-02
 LARGEST RESIDUAL VOL. FLUX         5.974E-06   AT NODE        655
   INSTANCE: SCALP-1                                                                         
 LARGEST INCREMENT OF PR. LM.      -0.850       AT NODE        601
   INSTANCE: SCALP-1                                                                         
 LARGEST CORRECTION TO PR. LM.     -2.177E-02   AT NODE        601
   INSTANCE: SCALP-1                                                                         
 ESTIMATE OF PR. LM.  CORRECTION   -6.653E-04
 VOL. FLUX EQUILIB. ACCEPTED BASED ON SMALL RESIDUAL AND ESTIMATED CORRECTION

  NUMBER OF EQUATIONS =     49411     NUMBER OF RHS =    1
  NUMBER OF FLOATING PT. OPERATIONS =  2.90E+09

     CHECK POINT   START OF SOLVER    

     CHECK POINT  END OF SOLVER       

       ELAPSED USER TIME (SEC)      =  0.67000    
       ELAPSED SYSTEM TIME (SEC)    =  5.00000E-02
       ELAPSED TOTAL CPU TIME (SEC) =  0.72000    
       ELAPSED WALLCLOCK TIME (SEC) =          1

               CONVERGENCE CHECKS FOR EQUILIBRIUM ITERATION     4

   MAX. PENETRATION ERROR -876.151E-09   AT NODE SCALP-1.6844 OF CONTACT PAIR 
   (ASSEMBLY_SURF-SCALP,ASSEMBLY_SURF-SKULL)
          THE CONTACT CONSTRAINTS HAVE CONVERGED.

 AVERAGE FORCE                      0.121       TIME AVG. FORCE       0.113    
 LARGEST RESIDUAL FORCE            -4.908E-02   AT NODE       6844   DOF  1
   INSTANCE: SCALP-1                                                                         
 LARGEST INCREMENT OF DISP.        -0.239       AT NODE        629   DOF  3
   INSTANCE: SCALP-1                                                                         
 LARGEST CORRECTION TO DISP.        7.322E-04   AT NODE       6018   DOF  3
   INSTANCE: SCALP-1                                                                         
          FORCE     EQUILIBRIUM NOT ACHIEVED WITHIN TOLERANCE.

 AVERAGE MOMENT                      38.6       TIME AVG. MOMENT       36.3    
 ALL MOMENT    RESIDUALS ARE ZERO
 LARGEST INCREMENT OF ROTATION     -4.167E-32   AT NODE       2048   DOF  5
   INSTANCE: SKULL-1                                                                         
 LARGEST CORRECTION TO ROTATION     1.417E-32   AT NODE       2048   DOF  5
   INSTANCE: SKULL-1                                                                         
          THE MOMENT    EQUILIBRIUM EQUATIONS HAVE CONVERGED

 AVERAGE VOL. FLUX                  3.853E-02   TIME AVG. VOL. FLUX   3.791E-02
 LARGEST RESIDUAL VOL. FLUX        -1.976E-07   AT NODE       6799
   INSTANCE: SCALP-1                                                                         
 LARGEST INCREMENT OF PR. LM.      -0.852       AT NODE        601
   INSTANCE: SCALP-1                                                                         
 LARGEST CORRECTION TO PR. LM.      2.454E-03   AT NODE        658
   INSTANCE: SCALP-1                                                                         
          THE VOL. FLUX EQUILIBRIUM EQUATIONS HAVE CONVERGED

  NUMBER OF EQUATIONS =     49411     NUMBER OF RHS =    1
  NUMBER OF FLOATING PT. OPERATIONS =  2.90E+09

     CHECK POINT   START OF SOLVER    

     CHECK POINT  END OF SOLVER       

       ELAPSED USER TIME (SEC)      =  0.63000    
       ELAPSED SYSTEM TIME (SEC)    =  3.00000E-02
       ELAPSED TOTAL CPU TIME (SEC) =  0.66000    
       ELAPSED WALLCLOCK TIME (SEC) =          0

               CONVERGENCE CHECKS FOR EQUILIBRIUM ITERATION     5

   MAX. PENETRATION ERROR 61.2943E-09  AT NODE SCALP-1.6782 OF CONTACT PAIR 
   (ASSEMBLY_SURF-SCALP,ASSEMBLY_SURF-SKULL)
          THE CONTACT CONSTRAINTS HAVE CONVERGED.

 AVERAGE FORCE                      0.121       TIME AVG. FORCE       0.113    
 LARGEST RESIDUAL FORCE            -3.044E-03   AT NODE       6905   DOF  1
   INSTANCE: SCALP-1                                                                         
 LARGEST INCREMENT OF DISP.        -0.239       AT NODE        629   DOF  3
   INSTANCE: SCALP-1                                                                         
 LARGEST CORRECTION TO DISP.       -2.227E-05   AT NODE       6018   DOF  3
   INSTANCE: SCALP-1                                                                         
          FORCE     EQUILIBRIUM NOT ACHIEVED WITHIN TOLERANCE.

 AVERAGE MOMENT                      38.6       TIME AVG. MOMENT       36.3    
 ALL MOMENT    RESIDUALS ARE ZERO
 LARGEST INCREMENT OF ROTATION     -2.750E-32   AT NODE       2048   DOF  5
   INSTANCE: SKULL-1                                                                         
 LARGEST CORRECTION TO ROTATION     1.417E-32   AT NODE       2048   DOF  5
   INSTANCE: SKULL-1                                                                         
          THE MOMENT    EQUILIBRIUM EQUATIONS HAVE CONVERGED

 AVERAGE VOL. FLUX                  3.853E-02   TIME AVG. VOL. FLUX   3.791E-02
 LARGEST RESIDUAL VOL. FLUX         6.036E-11   AT NODE        655
   INSTANCE: SCALP-1                                                                         
 LARGEST INCREMENT OF PR. LM.      -0.852       AT NODE        601
   INSTANCE: SCALP-1                                                                         
 LARGEST CORRECTION TO PR. LM.     -4.875E-05   AT NODE        601
   INSTANCE: SCALP-1                                                                         
          THE VOL. FLUX EQUILIBRIUM EQUATIONS HAVE CONVERGED

  NUMBER OF EQUATIONS =     49411     NUMBER OF RHS =    1
  NUMBER OF FLOATING PT. OPERATIONS =  2.90E+09

     CHECK POINT   START OF SOLVER    

     CHECK POINT  END OF SOLVER       

       ELAPSED USER TIME (SEC)      =  0.62000    
       ELAPSED SYSTEM TIME (SEC)    =  2.00000E-02
       ELAPSED TOTAL CPU TIME (SEC) =  0.64000    
       ELAPSED WALLCLOCK TIME (SEC) =          1

               CONVERGENCE CHECKS FOR EQUILIBRIUM ITERATION     6

   MAX. PENETRATION ERROR -128.782E-12   AT NODE SCALP-1.6905 OF CONTACT PAIR 
   (ASSEMBLY_SURF-SCALP,ASSEMBLY_SURF-SKULL)
          THE CONTACT CONSTRAINTS HAVE CONVERGED.

 AVERAGE FORCE                      0.121       TIME AVG. FORCE       0.113    
 LARGEST RESIDUAL FORCE            -1.024E-05   AT NODE       6905   DOF  1
   INSTANCE: SCALP-1                                                                         
 LARGEST INCREMENT OF DISP.        -0.239       AT NODE        629   DOF  3
   INSTANCE: SCALP-1                                                                         
 LARGEST CORRECTION TO DISP.        5.470E-08   AT NODE       6782   DOF  1
   INSTANCE: SCALP-1                                                                         
          THE FORCE     EQUILIBRIUM EQUATIONS HAVE CONVERGED

 AVERAGE MOMENT                      38.6       TIME AVG. MOMENT       36.3    
 ALL MOMENT    RESIDUALS ARE ZERO
 LARGEST INCREMENT OF ROTATION     -1.333E-32   AT NODE       2048   DOF  5
   INSTANCE: SKULL-1                                                                         
 LARGEST CORRECTION TO ROTATION     1.417E-32   AT NODE       2048   DOF  5
   INSTANCE: SKULL-1                                                                         
          THE MOMENT    EQUILIBRIUM EQUATIONS HAVE CONVERGED

 AVERAGE VOL. FLUX                  3.853E-02   TIME AVG. VOL. FLUX   3.791E-02
 LARGEST RESIDUAL VOL. FLUX        -2.981E-14   AT NODE       4033
   INSTANCE: SCALP-1                                                                         
 LARGEST INCREMENT OF PR. LM.      -0.852       AT NODE        601
   INSTANCE: SCALP-1                                                                         
 LARGEST CORRECTION TO PR. LM.     -3.057E-07   AT NODE       3574
   INSTANCE: SCALP-1                                                                         
          THE VOL. FLUX EQUILIBRIUM EQUATIONS HAVE CONVERGED

 ITERATION SUMMARY FOR THE INCREMENT:   7 TOTAL ITERATIONS, OF WHICH
   1 ARE SEVERE DISCONTINUITY ITERATIONS AND  6 ARE EQUILIBRIUM ITERATIONS.

 TIME INCREMENT COMPLETED  1.562E-02,  FRACTION OF STEP COMPLETED   1.00    
 STEP TIME COMPLETED        1.00    ,  TOTAL TIME COMPLETED         3.00    


          THE ANALYSIS HAS BEEN COMPLETED



     ANALYSIS SUMMARY:
     TOTAL OF         50  INCREMENTS
                      10  CUTBACKS IN AUTOMATIC INCREMENTATION
                     428  ITERATIONS INCLUDING CONTACT ITERATIONS IF PRESENT
                     428  PASSES THROUGH THE EQUATION SOLVER OF WHICH 
                     428  INVOLVE MATRIX DECOMPOSITION, INCLUDING
                       0  DECOMPOSITION(S) OF THE MASS MATRIX
                       1  REORDERING OF EQUATIONS TO MINIMIZE WAVEFRONT
                       0  ADDITIONAL RESIDUAL EVALUATIONS FOR LINE SEARCHES
                       0  ADDITIONAL OPERATOR EVALUATIONS FOR LINE SEARCHES
                   13003  WARNING MESSAGES DURING USER INPUT PROCESSING
                      37  WARNING MESSAGES DURING ANALYSIS
                       0  ANALYSIS WARNINGS ARE NUMERICAL PROBLEM MESSAGES
                       6  ANALYSIS WARNINGS ARE NEGATIVE EIGENVALUE MESSAGES
                       0  ERROR MESSAGES



     JOB TIME SUMMARY
       USER TIME (SEC)      =   2550.9    
       SYSTEM TIME (SEC)    =   53.090    
       TOTAL CPU TIME (SEC) =   2604.0    
       WALLCLOCK TIME (SEC) =       2617
