1

   Abaqus 2020                                  Date 22-Jan-2022   Time 09:44:47
   For use by PURDUE UNIVERSITY under license from Dassault Systemes or its subsidiary.



                         The Abaqus Software is a product of:

                           Dassault Systemes SIMULIA Corp.
                           1301 Atwood Avenue, Suite 101W
                              Johnston, RI 02919, USA
 


                   The Abaqus Software is available only under license
                   from Dassault Systemes or its subsidiary and may be
                   used or reproduced only in accordance with the terms
                   of such license.
 
                          On machine brown-a035.rcac.purdue.edu 
                          you are authorized to run
                          Abaqus/Standard until 30-Jun-2022

                          Your site id is: 100000000002199 


 
                    For assistance or any other information you may
                    obtain contact information for your local office
                    from the world wide web at:

                      http://www.3ds.com/products/simulia/locations/

 
                * * * * * * * * * * * * * * * * * * * * * * * * * * * * * * 
                *                                                         * 
                *                   *****************                     * 
                *                   *  N O T I C E  *                     * 
                *                   *****************                     * 
                *                                                         * 
                *                                                         * 
                *                       Abaqus 2020                       * 
                *                                                         * 
                *          BUILD ID: 2019_09_13-13.49.31 163176           * 
                *                                                         * 
                *                                                         * 
                *  Please make sure you are using                         * 
                *  release Abaqus 2020 manuals                            * 
                *  plus the notes accompanying this release.              * 
                *                                                         * 
                *                                                         * 
                *                                                         * 
                *                                                         * 
                *                                                         * 
                *   This program may not be used for commercial purposes  * 
                *           without payment of a commercial fee.          * 
                *                                                         * 
                * * * * * * * * * * * * * * * * * * * * * * * * * * * * * * 


 



     PROCESSING PART, INSTANCE, AND ASSEMBLY INFORMATION
   *******************************************************


     END PROCESSING PART, INSTANCE, AND ASSEMBLY INFORMATION
   ***********************************************************




     OPTIONS BEING PROCESSED
   ***************************


  *Heading
  *Node
  *Element, type=C3D4H
  *Elset, elset=ASSEMBLY_SCALP-1_SAMEFIB_1
  *Elset, elset=ASSEMBLY_SCALP-1_SAMEFIB_10
  *Elset, elset=ASSEMBLY_SCALP-1_SAMEFIB_100
  *Elset, elset=ASSEMBLY_SCALP-1_SAMEFIB_1000
  *Elset, elset=ASSEMBLY_SCALP-1_SAMEFIB_10000
  *Elset, elset=ASSEMBLY_SCALP-1_SAMEFIB_10001
  *Elset, elset=ASSEMBLY_SCALP-1_SAMEFIB_10002
  *Elset, elset=ASSEMBLY_SCALP-1_SAMEFIB_10003
  *Elset, elset=ASSEMBLY_SCALP-1_SAMEFIB_10004
  *Elset, elset=ASSEMBLY_SCALP-1_SAMEFIB_10005
  *Elset, elset=ASSEMBLY_SCALP-1_SAMEFIB_10006
  *Elset, elset=ASSEMBLY_SCALP-1_SAMEFIB_10007
  *Elset, elset=ASSEMBLY_SCALP-1_SAMEFIB_10008
  *Elset, elset=ASSEMBLY_SCALP-1_SAMEFIB_10009
  *Elset, elset=ASSEMBLY_SCALP-1_SAMEFIB_1001
  *Elset, elset=ASSEMBLY_SCALP-1_SAMEFIB_10010
  *Elset, elset=ASSEMBLY_SCALP-1_SAMEFIB_10011
  *Elset, elset=ASSEMBLY_SCALP-1_SAMEFIB_10012
  *Elset, elset=ASSEMBLY_SCALP-1_SAMEFIB_10013
  *Elset, elset=ASSEMBLY_SCALP-1_SAMEFIB_10014
  *Elset, elset=ASSEMBLY_SCALP-1_SAMEFIB_10015
  *Elset, elset=ASSEMBLY_SCALP-1_SAMEFIB_10016
  *Elset, elset=ASSEMBLY_SCALP-1_SAMEFIB_10017
  *Elset, elset=ASSEMBLY_SCALP-1_SAMEFIB_10018
  *Elset, elset=ASSEMBLY_SCALP-1_SAMEFIB_10019
  *Elset, elset=ASSEMBLY_SCALP-1_SAMEFIB_1002
  *Elset, elset=ASSEMBLY_SCALP-1_SAMEFIB_10020
  *Elset, elset=ASSEMBLY_SCALP-1_SAMEFIB_10021
  *Elset, elset=ASSEMBLY_SCALP-1_SAMEFIB_10022
  *Elset, elset=ASSEMBLY_SCALP-1_SAMEFIB_10023
  *Elset, elset=ASSEMBLY_SCALP-1_SAMEFIB_10024
  *Elset, elset=ASSEMBLY_SCALP-1_SAMEFIB_10025
  *Elset, elset=ASSEMBLY_SCALP-1_SAMEFIB_10026
  *Elset, elset=ASSEMBLY_SCALP-1_SAMEFIB_10027
  *Elset, elset=ASSEMBLY_SCALP-1_SAMEFIB_10028
  *Elset, elset=ASSEMBLY_SCALP-1_SAMEFIB_10029
  *Elset, elset=ASSEMBLY_SCALP-1_SAMEFIB_1003
  *Elset, elset=ASSEMBLY_SCALP-1_SAMEFIB_10030
  *Elset, elset=ASSEMBLY_SCALP-1_SAMEFIB_10031
  *Elset, elset=ASSEMBLY_SCALP-1_SAMEFIB_10032
  *Elset, elset=ASSEMBLY_SCALP-1_SAMEFIB_10033
  *Elset, elset=ASSEMBLY_SCALP-1_SAMEFIB_10034
  *Elset, elset=ASSEMBLY_SCALP-1_SAMEFIB_10035
  *Elset, elset=ASSEMBLY_SCALP-1_SAMEFIB_10036
  *Elset, elset=ASSEMBLY_SCALP-1_SAMEFIB_10037
  *Elset, elset=ASSEMBLY_SCALP-1_SAMEFIB_10038
  *Elset, elset=ASSEMBLY_SCALP-1_SAMEFIB_10039
  *Elset, elset=ASSEMBLY_SCALP-1_SAMEFIB_1004
  *Elset, elset=ASSEMBLY_SCALP-1_SAMEFIB_10040
  *Elset, elset=ASSEMBLY_SCALP-1_SAMEFIB_10041
  *Elset, elset=ASSEMBLY_SCALP-1_SAMEFIB_10042
  *Elset, elset=ASSEMBLY_SCALP-1_SAMEFIB_10043
  *Elset, elset=ASSEMBLY_SCALP-1_SAMEFIB_10044
  *Elset, elset=ASSEMBLY_SCALP-1_SAMEFIB_10045
  *Elset, elset=ASSEMBLY_SCALP-1_SAMEFIB_10046
  *Elset, elset=ASSEMBLY_SCALP-1_SAMEFIB_10047
  *Elset, elset=ASSEMBLY_SCALP-1_SAMEFIB_10048
  *Elset, elset=ASSEMBLY_SCALP-1_SAMEFIB_10049
  *Elset, elset=ASSEMBLY_SCALP-1_SAMEFIB_1005
  *Elset, elset=ASSEMBLY_SCALP-1_SAMEFIB_10050
  *Elset, elset=ASSEMBLY_SCALP-1_SAMEFIB_10051
  *Elset, elset=ASSEMBLY_SCALP-1_SAMEFIB_10052
  *Elset, elset=ASSEMBLY_SCALP-1_SAMEFIB_10053
  *Elset, elset=ASSEMBLY_SCALP-1_SAMEFIB_10054
  *Elset, elset=ASSEMBLY_SCALP-1_SAMEFIB_10055
  *Elset, elset=ASSEMBLY_SCALP-1_SAMEFIB_10056
  *Elset, elset=ASSEMBLY_SCALP-1_SAMEFIB_10057
  *Elset, elset=ASSEMBLY_SCALP-1_SAMEFIB_10058
  *Elset, elset=ASSEMBLY_SCALP-1_SAMEFIB_10059
  *Elset, elset=ASSEMBLY_SCALP-1_SAMEFIB_1006
  *Elset, elset=ASSEMBLY_SCALP-1_SAMEFIB_10060
  *Elset, elset=ASSEMBLY_SCALP-1_SAMEFIB_10061
  *Elset, elset=ASSEMBLY_SCALP-1_SAMEFIB_10062
  *Elset, elset=ASSEMBLY_SCALP-1_SAMEFIB_10063
  *Elset, elset=ASSEMBLY_SCALP-1_SAMEFIB_10064
  *Elset, elset=ASSEMBLY_SCALP-1_SAMEFIB_10065
  *Elset, elset=ASSEMBLY_SCALP-1_SAMEFIB_10066
  *Elset, elset=ASSEMBLY_SCALP-1_SAMEFIB_10067
  *Elset, elset=ASSEMBLY_SCALP-1_SAMEFIB_10068
  *Elset, elset=ASSEMBLY_SCALP-1_SAMEFIB_10069
  *Elset, elset=ASSEMBLY_SCALP-1_SAMEFIB_1007
  *Elset, elset=ASSEMBLY_SCALP-1_SAMEFIB_10070
  *Elset, elset=ASSEMBLY_SCALP-1_SAMEFIB_10071
  *Elset, elset=ASSEMBLY_SCALP-1_SAMEFIB_10072
  *Elset, elset=ASSEMBLY_SCALP-1_SAMEFIB_10073
  *Elset, elset=ASSEMBLY_SCALP-1_SAMEFIB_10074
  *Elset, elset=ASSEMBLY_SCALP-1_SAMEFIB_10075
  *Elset, elset=ASSEMBLY_SCALP-1_SAMEFIB_10076
  *Elset, elset=ASSEMBLY_SCALP-1_SAMEFIB_10077
  *Elset, elset=ASSEMBLY_SCALP-1_SAMEFIB_10078
  *Elset, elset=ASSEMBLY_SCALP-1_SAMEFIB_10079
  *Elset, elset=ASSEMBLY_SCALP-1_SAMEFIB_1008
  *Elset, elset=ASSEMBLY_SCALP-1_SAMEFIB_10080
  *Elset, elset=ASSEMBLY_SCALP-1_SAMEFIB_10081
  *Elset, elset=ASSEMBLY_SCALP-1_SAMEFIB_10082
  *Elset, elset=ASSEMBLY_SCALP-1_SAMEFIB_10083
  *Elset, elset=ASSEMBLY_SCALP-1_SAMEFIB_10084
  *Elset, elset=ASSEMBLY_SCALP-1_SAMEFIB_10085
  *Elset, elset=ASSEMBLY_SCALP-1_SAMEFIB_10086
  *Elset, elset=ASSEMBLY_SCALP-1_SAMEFIB_10087
  *Elset, elset=ASSEMBLY_SCALP-1_SAMEFIB_10088
  *Elset, elset=ASSEMBLY_SCALP-1_SAMEFIB_10089
  *Elset, elset=ASSEMBLY_SCALP-1_SAMEFIB_1009
  *Elset, elset=ASSEMBLY_SCALP-1_SAMEFIB_10090
  *Elset, elset=ASSEMBLY_SCALP-1_SAMEFIB_10091
  *Elset, elset=ASSEMBLY_SCALP-1_SAMEFIB_10092
  *Elset, elset=ASSEMBLY_SCALP-1_SAMEFIB_10093
  *Elset, elset=ASSEMBLY_SCALP-1_SAMEFIB_10094
  *Elset, elset=ASSEMBLY_SCALP-1_SAMEFIB_10095
  *Elset, elset=ASSEMBLY_SCALP-1_SAMEFIB_10096
  *Elset, elset=ASSEMBLY_SCALP-1_SAMEFIB_10097
  *Elset, elset=ASSEMBLY_SCALP-1_SAMEFIB_10098
  *Elset, elset=ASSEMBLY_SCALP-1_SAMEFIB_10099
  *Elset, elset=ASSEMBLY_SCALP-1_SAMEFIB_101
  *Elset, elset=ASSEMBLY_SCALP-1_SAMEFIB_1010
  *Elset, elset=ASSEMBLY_SCALP-1_SAMEFIB_10100
  *Elset, elset=ASSEMBLY_SCALP-1_SAMEFIB_10101
  *Elset, elset=ASSEMBLY_SCALP-1_SAMEFIB_10102
  *Elset, elset=ASSEMBLY_SCALP-1_SAMEFIB_10103
  *Elset, elset=ASSEMBLY_SCALP-1_SAMEFIB_10104
  *Elset, elset=ASSEMBLY_SCALP-1_SAMEFIB_10105
  *Elset, elset=ASSEMBLY_SCALP-1_SAMEFIB_10106
  *Elset, elset=ASSEMBLY_SCALP-1_SAMEFIB_10107
  *Elset, elset=ASSEMBLY_SCALP-1_SAMEFIB_10108
  *Elset, elset=ASSEMBLY_SCALP-1_SAMEFIB_10109
  *Elset, elset=ASSEMBLY_SCALP-1_SAMEFIB_1011
  *Elset, elset=ASSEMBLY_SCALP-1_SAMEFIB_10110
  *Elset, elset=ASSEMBLY_SCALP-1_SAMEFIB_10111
  *Elset, elset=ASSEMBLY_SCALP-1_SAMEFIB_10112
  *Elset, elset=ASSEMBLY_SCALP-1_SAMEFIB_10113
  *Elset, elset=ASSEMBLY_SCALP-1_SAMEFIB_10114
  *Elset, elset=ASSEMBLY_SCALP-1_SAMEFIB_10115
  *Elset, elset=ASSEMBLY_SCALP-1_SAMEFIB_10116
  *Elset, elset=ASSEMBLY_SCALP-1_SAMEFIB_10117
  *Elset, elset=ASSEMBLY_SCALP-1_SAMEFIB_10118
  *Elset, elset=ASSEMBLY_SCALP-1_SAMEFIB_10119
  *Elset, elset=ASSEMBLY_SCALP-1_SAMEFIB_1012
  *Elset, elset=ASSEMBLY_SCALP-1_SAMEFIB_10120
  *Elset, elset=ASSEMBLY_SCALP-1_SAMEFIB_10121
  *Elset, elset=ASSEMBLY_SCALP-1_SAMEFIB_10122
  *Elset, elset=ASSEMBLY_SCALP-1_SAMEFIB_10123
  *Elset, elset=ASSEMBLY_SCALP-1_SAMEFIB_10124
  *Elset, elset=ASSEMBLY_SCALP-1_SAMEFIB_10125
  *Elset, elset=ASSEMBLY_SCALP-1_SAMEFIB_10126
  *Elset, elset=ASSEMBLY_SCALP-1_SAMEFIB_10127
  *Elset, elset=ASSEMBLY_SCALP-1_SAMEFIB_10128
  *Elset, elset=ASSEMBLY_SCALP-1_SAMEFIB_10129
  *Elset, elset=ASSEMBLY_SCALP-1_SAMEFIB_1013
  *Elset, elset=ASSEMBLY_SCALP-1_SAMEFIB_10130
  *Elset, elset=ASSEMBLY_SCALP-1_SAMEFIB_10131
  *Elset, elset=ASSEMBLY_SCALP-1_SAMEFIB_10132
  *Elset, elset=ASSEMBLY_SCALP-1_SAMEFIB_10133
  *Elset, elset=ASSEMBLY_SCALP-1_SAMEFIB_10134
  *Elset, elset=ASSEMBLY_SCALP-1_SAMEFIB_10135
  *Elset, elset=ASSEMBLY_SCALP-1_SAMEFIB_10136
  *Elset, elset=ASSEMBLY_SCALP-1_SAMEFIB_10137
  *Elset, elset=ASSEMBLY_SCALP-1_SAMEFIB_10138
  *Elset, elset=ASSEMBLY_SCALP-1_SAMEFIB_10139
  *Elset, elset=ASSEMBLY_SCALP-1_SAMEFIB_1014
  *Elset, elset=ASSEMBLY_SCALP-1_SAMEFIB_10140
  *Elset, elset=ASSEMBLY_SCALP-1_SAMEFIB_10141
  *Elset, elset=ASSEMBLY_SCALP-1_SAMEFIB_10142
  *Elset, elset=ASSEMBLY_SCALP-1_SAMEFIB_10143
  *Elset, elset=ASSEMBLY_SCALP-1_SAMEFIB_10144
  *Elset, elset=ASSEMBLY_SCALP-1_SAMEFIB_10145
  *Elset, elset=ASSEMBLY_SCALP-1_SAMEFIB_10146
  *Elset, elset=ASSEMBLY_SCALP-1_SAMEFIB_10147
  *Elset, elset=ASSEMBLY_SCALP-1_SAMEFIB_10148
  *Elset, elset=ASSEMBLY_SCALP-1_SAMEFIB_10149
  *Elset, elset=ASSEMBLY_SCALP-1_SAMEFIB_1015
  *Elset, elset=ASSEMBLY_SCALP-1_SAMEFIB_10150
  *Elset, elset=ASSEMBLY_SCALP-1_SAMEFIB_10151
  *Elset, elset=ASSEMBLY_SCALP-1_SAMEFIB_10152
  *Elset, elset=ASSEMBLY_SCALP-1_SAMEFIB_10153
  *Elset, elset=ASSEMBLY_SCALP-1_SAMEFIB_10154
  *Elset, elset=ASSEMBLY_SCALP-1_SAMEFIB_10155
  *Elset, elset=ASSEMBLY_SCALP-1_SAMEFIB_10156
  *Elset, elset=ASSEMBLY_SCALP-1_SAMEFIB_10157
  *Elset, elset=ASSEMBLY_SCALP-1_SAMEFIB_10158
  *Elset, elset=ASSEMBLY_SCALP-1_SAMEFIB_10159
  *Elset, elset=ASSEMBLY_SCALP-1_SAMEFIB_1016
  *Elset, elset=ASSEMBLY_SCALP-1_SAMEFIB_10160
  *Elset, elset=ASSEMBLY_SCALP-1_SAMEFIB_10161
  *Elset, elset=ASSEMBLY_SCALP-1_SAMEFIB_10162
  *Elset, elset=ASSEMBLY_SCALP-1_SAMEFIB_10163
  *Elset, elset=ASSEMBLY_SCALP-1_SAMEFIB_10164
  *Elset, elset=ASSEMBLY_SCALP-1_SAMEFIB_10165
  *Elset, elset=ASSEMBLY_SCALP-1_SAMEFIB_10166
  *Elset, elset=ASSEMBLY_SCALP-1_SAMEFIB_10167
  *Elset, elset=ASSEMBLY_SCALP-1_SAMEFIB_10168
  *Elset, elset=ASSEMBLY_SCALP-1_SAMEFIB_10169
  *Elset, elset=ASSEMBLY_SCALP-1_SAMEFIB_1017
  *Elset, elset=ASSEMBLY_SCALP-1_SAMEFIB_10170
  *Elset, elset=ASSEMBLY_SCALP-1_SAMEFIB_10171
  *Elset, elset=ASSEMBLY_SCALP-1_SAMEFIB_10172
  *Elset, elset=ASSEMBLY_SCALP-1_SAMEFIB_10173
  *Elset, elset=ASSEMBLY_SCALP-1_SAMEFIB_10174
  *Elset, elset=ASSEMBLY_SCALP-1_SAMEFIB_10175
  *Elset, elset=ASSEMBLY_SCALP-1_SAMEFIB_10176
  *Elset, elset=ASSEMBLY_SCALP-1_SAMEFIB_10177
  *Elset, elset=ASSEMBLY_SCALP-1_SAMEFIB_10178
  *Elset, elset=ASSEMBLY_SCALP-1_SAMEFIB_10179
  *Elset, elset=ASSEMBLY_SCALP-1_SAMEFIB_1018
  *Elset, elset=ASSEMBLY_SCALP-1_SAMEFIB_10180
  *Elset, elset=ASSEMBLY_SCALP-1_SAMEFIB_10181
  *Elset, elset=ASSEMBLY_SCALP-1_SAMEFIB_10182
  *Elset, elset=ASSEMBLY_SCALP-1_SAMEFIB_10183
  *Elset, elset=ASSEMBLY_SCALP-1_SAMEFIB_10184
  *Elset, elset=ASSEMBLY_SCALP-1_SAMEFIB_10185
  *Elset, elset=ASSEMBLY_SCALP-1_SAMEFIB_10186
  *Elset, elset=ASSEMBLY_SCALP-1_SAMEFIB_10187
  *Elset, elset=ASSEMBLY_SCALP-1_SAMEFIB_10188
  *Elset, elset=ASSEMBLY_SCALP-1_SAMEFIB_10189
  *Elset, elset=ASSEMBLY_SCALP-1_SAMEFIB_1019
  *Elset, elset=ASSEMBLY_SCALP-1_SAMEFIB_10190
  *Elset, elset=ASSEMBLY_SCALP-1_SAMEFIB_10191
  *Elset, elset=ASSEMBLY_SCALP-1_SAMEFIB_10192
  *Elset, elset=ASSEMBLY_SCALP-1_SAMEFIB_10193
  *Elset, elset=ASSEMBLY_SCALP-1_SAMEFIB_10194
  *Elset, elset=ASSEMBLY_SCALP-1_SAMEFIB_10195
  *Elset, elset=ASSEMBLY_SCALP-1_SAMEFIB_10196
  *Elset, elset=ASSEMBLY_SCALP-1_SAMEFIB_10197
  *Elset, elset=ASSEMBLY_SCALP-1_SAMEFIB_10198
  *Elset, elset=ASSEMBLY_SCALP-1_SAMEFIB_10199
  *Elset, elset=ASSEMBLY_SCALP-1_SAMEFIB_102
  *Elset, elset=ASSEMBLY_SCALP-1_SAMEFIB_1020
  *Elset, elset=ASSEMBLY_SCALP-1_SAMEFIB_10200
  *Elset, elset=ASSEMBLY_SCALP-1_SAMEFIB_10201
  *Elset, elset=ASSEMBLY_SCALP-1_SAMEFIB_10202
  *Elset, elset=ASSEMBLY_SCALP-1_SAMEFIB_10203
  *Elset, elset=ASSEMBLY_SCALP-1_SAMEFIB_10204
  *Elset, elset=ASSEMBLY_SCALP-1_SAMEFIB_10205
  *Elset, elset=ASSEMBLY_SCALP-1_SAMEFIB_10206
  *Elset, elset=ASSEMBLY_SCALP-1_SAMEFIB_10207
  *Elset, elset=ASSEMBLY_SCALP-1_SAMEFIB_10208
  *Elset, elset=ASSEMBLY_SCALP-1_SAMEFIB_10209
  *Elset, elset=ASSEMBLY_SCALP-1_SAMEFIB_1021
  *Elset, elset=ASSEMBLY_SCALP-1_SAMEFIB_10210
  *Elset, elset=ASSEMBLY_SCALP-1_SAMEFIB_10211
  *Elset, elset=ASSEMBLY_SCALP-1_SAMEFIB_10212
  *Elset, elset=ASSEMBLY_SCALP-1_SAMEFIB_10213
  *Elset, elset=ASSEMBLY_SCALP-1_SAMEFIB_10214
  *Elset, elset=ASSEMBLY_SCALP-1_SAMEFIB_10215
  *Elset, elset=ASSEMBLY_SCALP-1_SAMEFIB_10216
  *Elset, elset=ASSEMBLY_SCALP-1_SAMEFIB_10217
  *Elset, elset=ASSEMBLY_SCALP-1_SAMEFIB_10218
  *Elset, elset=ASSEMBLY_SCALP-1_SAMEFIB_10219
  *Elset, elset=ASSEMBLY_SCALP-1_SAMEFIB_1022
  *Elset, elset=ASSEMBLY_SCALP-1_SAMEFIB_10220
  *Elset, elset=ASSEMBLY_SCALP-1_SAMEFIB_10221
  *Elset, elset=ASSEMBLY_SCALP-1_SAMEFIB_10222
  *Elset, elset=ASSEMBLY_SCALP-1_SAMEFIB_10223
  *Elset, elset=ASSEMBLY_SCALP-1_SAMEFIB_10224
  *Elset, elset=ASSEMBLY_SCALP-1_SAMEFIB_10225
  *Elset, elset=ASSEMBLY_SCALP-1_SAMEFIB_10226
  *Elset, elset=ASSEMBLY_SCALP-1_SAMEFIB_10227
  *Elset, elset=ASSEMBLY_SCALP-1_SAMEFIB_10228
  *Elset, elset=ASSEMBLY_SCALP-1_SAMEFIB_10229
  *Elset, elset=ASSEMBLY_SCALP-1_SAMEFIB_1023
  *Elset, elset=ASSEMBLY_SCALP-1_SAMEFIB_10230
  *Elset, elset=ASSEMBLY_SCALP-1_SAMEFIB_10231
  *Elset, elset=ASSEMBLY_SCALP-1_SAMEFIB_10232
  *Elset, elset=ASSEMBLY_SCALP-1_SAMEFIB_10233
  *Elset, elset=ASSEMBLY_SCALP-1_SAMEFIB_10234
  *Elset, elset=ASSEMBLY_SCALP-1_SAMEFIB_10235
  *Elset, elset=ASSEMBLY_SCALP-1_SAMEFIB_10236
  *Elset, elset=ASSEMBLY_SCALP-1_SAMEFIB_10237
  *Elset, elset=ASSEMBLY_SCALP-1_SAMEFIB_10238
  *Elset, elset=ASSEMBLY_SCALP-1_SAMEFIB_10239
  *Elset, elset=ASSEMBLY_SCALP-1_SAMEFIB_1024
  *Elset, elset=ASSEMBLY_SCALP-1_SAMEFIB_10240
  *Elset, elset=ASSEMBLY_SCALP-1_SAMEFIB_10241
  *Elset, elset=ASSEMBLY_SCALP-1_SAMEFIB_10242
  *Elset, elset=ASSEMBLY_SCALP-1_SAMEFIB_10243
  *Elset, elset=ASSEMBLY_SCALP-1_SAMEFIB_10244
  *Elset, elset=ASSEMBLY_SCALP-1_SAMEFIB_10245
  *Elset, elset=ASSEMBLY_SCALP-1_SAMEFIB_10246
  *Elset, elset=ASSEMBLY_SCALP-1_SAMEFIB_10247
  *Elset, elset=ASSEMBLY_SCALP-1_SAMEFIB_10248
  *Elset, elset=ASSEMBLY_SCALP-1_SAMEFIB_10249
  *Elset, elset=ASSEMBLY_SCALP-1_SAMEFIB_1025
  *Elset, elset=ASSEMBLY_SCALP-1_SAMEFIB_10250
  *Elset, elset=ASSEMBLY_SCALP-1_SAMEFIB_10251
  *Elset, elset=ASSEMBLY_SCALP-1_SAMEFIB_10252
  *Elset, elset=ASSEMBLY_SCALP-1_SAMEFIB_10253
  *Elset, elset=ASSEMBLY_SCALP-1_SAMEFIB_10254
  *Elset, elset=ASSEMBLY_SCALP-1_SAMEFIB_10255
  *Elset, elset=ASSEMBLY_SCALP-1_SAMEFIB_10256
  *Elset, elset=ASSEMBLY_SCALP-1_SAMEFIB_10257
  *Elset, elset=ASSEMBLY_SCALP-1_SAMEFIB_10258
  *Elset, elset=ASSEMBLY_SCALP-1_SAMEFIB_10259
  *Elset, elset=ASSEMBLY_SCALP-1_SAMEFIB_1026
  *Elset, elset=ASSEMBLY_SCALP-1_SAMEFIB_10260
  *Elset, elset=ASSEMBLY_SCALP-1_SAMEFIB_10261
  *Elset, elset=ASSEMBLY_SCALP-1_SAMEFIB_10262
  *Elset, elset=ASSEMBLY_SCALP-1_SAMEFIB_10263
  *Elset, elset=ASSEMBLY_SCALP-1_SAMEFIB_10264
  *Elset, elset=ASSEMBLY_SCALP-1_SAMEFIB_10265
  *Elset, elset=ASSEMBLY_SCALP-1_SAMEFIB_10266
  *Elset, elset=ASSEMBLY_SCALP-1_SAMEFIB_10267
  *Elset, elset=ASSEMBLY_SCALP-1_SAMEFIB_10268
  *Elset, elset=ASSEMBLY_SCALP-1_SAMEFIB_10269
  *Elset, elset=ASSEMBLY_SCALP-1_SAMEFIB_1027
  *Elset, elset=ASSEMBLY_SCALP-1_SAMEFIB_10270
  *Elset, elset=ASSEMBLY_SCALP-1_SAMEFIB_10271
  *Elset, elset=ASSEMBLY_SCALP-1_SAMEFIB_10272
  *Elset, elset=ASSEMBLY_SCALP-1_SAMEFIB_10273
  *Elset, elset=ASSEMBLY_SCALP-1_SAMEFIB_10274
  *Elset, elset=ASSEMBLY_SCALP-1_SAMEFIB_10275
  *Elset, elset=ASSEMBLY_SCALP-1_SAMEFIB_10276
  *Elset, elset=ASSEMBLY_SCALP-1_SAMEFIB_10277
  *Elset, elset=ASSEMBLY_SCALP-1_SAMEFIB_10278
  *Elset, elset=ASSEMBLY_SCALP-1_SAMEFIB_10279
  *Elset, elset=ASSEMBLY_SCALP-1_SAMEFIB_1028
  *Elset, elset=ASSEMBLY_SCALP-1_SAMEFIB_10280
  *Elset, elset=ASSEMBLY_SCALP-1_SAMEFIB_10281
  *Elset, elset=ASSEMBLY_SCALP-1_SAMEFIB_10282
  *Elset, elset=ASSEMBLY_SCALP-1_SAMEFIB_10283
  *Elset, elset=ASSEMBLY_SCALP-1_SAMEFIB_10284
  *Elset, elset=ASSEMBLY_SCALP-1_SAMEFIB_10285
  *Elset, elset=ASSEMBLY_SCALP-1_SAMEFIB_10286
  *Elset, elset=ASSEMBLY_SCALP-1_SAMEFIB_10287
  *Elset, elset=ASSEMBLY_SCALP-1_SAMEFIB_10288
  *Elset, elset=ASSEMBLY_SCALP-1_SAMEFIB_10289
  *Elset, elset=ASSEMBLY_SCALP-1_SAMEFIB_1029
  *Elset, elset=ASSEMBLY_SCALP-1_SAMEFIB_10290
  *Elset, elset=ASSEMBLY_SCALP-1_SAMEFIB_10291
  *Elset, elset=ASSEMBLY_SCALP-1_SAMEFIB_10292
  *Elset, elset=ASSEMBLY_SCALP-1_SAMEFIB_10293
  *Elset, elset=ASSEMBLY_SCALP-1_SAMEFIB_10294
  *Elset, elset=ASSEMBLY_SCALP-1_SAMEFIB_10295
  *Elset, elset=ASSEMBLY_SCALP-1_SAMEFIB_10296
  *Elset, elset=ASSEMBLY_SCALP-1_SAMEFIB_10297
  *Elset, elset=ASSEMBLY_SCALP-1_SAMEFIB_10298
  *Elset, elset=ASSEMBLY_SCALP-1_SAMEFIB_10299
  *Elset, elset=ASSEMBLY_SCALP-1_SAMEFIB_103
  *Elset, elset=ASSEMBLY_SCALP-1_SAMEFIB_1030
  *Elset, elset=ASSEMBLY_SCALP-1_SAMEFIB_10300
  *Elset, elset=ASSEMBLY_SCALP-1_SAMEFIB_10301
  *Elset, elset=ASSEMBLY_SCALP-1_SAMEFIB_10302
  *Elset, elset=ASSEMBLY_SCALP-1_SAMEFIB_10303
  *Elset, elset=ASSEMBLY_SCALP-1_SAMEFIB_10304
  *Elset, elset=ASSEMBLY_SCALP-1_SAMEFIB_10305
  *Elset, elset=ASSEMBLY_SCALP-1_SAMEFIB_10306
  *Elset, elset=ASSEMBLY_SCALP-1_SAMEFIB_10307
  *Elset, elset=ASSEMBLY_SCALP-1_SAMEFIB_10308
  *Elset, elset=ASSEMBLY_SCALP-1_SAMEFIB_10309
  *Elset, elset=ASSEMBLY_SCALP-1_SAMEFIB_1031
  *Elset, elset=ASSEMBLY_SCALP-1_SAMEFIB_10310
  *Elset, elset=ASSEMBLY_SCALP-1_SAMEFIB_10311
  *Elset, elset=ASSEMBLY_SCALP-1_SAMEFIB_10312
  *Elset, elset=ASSEMBLY_SCALP-1_SAMEFIB_10313
  *Elset, elset=ASSEMBLY_SCALP-1_SAMEFIB_10314
  *Elset, elset=ASSEMBLY_SCALP-1_SAMEFIB_10315
  *Elset, elset=ASSEMBLY_SCALP-1_SAMEFIB_10316
  *Elset, elset=ASSEMBLY_SCALP-1_SAMEFIB_10317
  *Elset, elset=ASSEMBLY_SCALP-1_SAMEFIB_10318
  *Elset, elset=ASSEMBLY_SCALP-1_SAMEFIB_10319
  *Elset, elset=ASSEMBLY_SCALP-1_SAMEFIB_1032
  *Elset, elset=ASSEMBLY_SCALP-1_SAMEFIB_10320
  *Elset, elset=ASSEMBLY_SCALP-1_SAMEFIB_10321
  *Elset, elset=ASSEMBLY_SCALP-1_SAMEFIB_10322
  *Elset, elset=ASSEMBLY_SCALP-1_SAMEFIB_10323
  *Elset, elset=ASSEMBLY_SCALP-1_SAMEFIB_10324
  *Elset, elset=ASSEMBLY_SCALP-1_SAMEFIB_10325
  *Elset, elset=ASSEMBLY_SCALP-1_SAMEFIB_10326
  *Elset, elset=ASSEMBLY_SCALP-1_SAMEFIB_10327
  *Elset, elset=ASSEMBLY_SCALP-1_SAMEFIB_10328
  *Elset, elset=ASSEMBLY_SCALP-1_SAMEFIB_10329
  *Elset, elset=ASSEMBLY_SCALP-1_SAMEFIB_1033
  *Elset, elset=ASSEMBLY_SCALP-1_SAMEFIB_10330
  *Elset, elset=ASSEMBLY_SCALP-1_SAMEFIB_10331
  *Elset, elset=ASSEMBLY_SCALP-1_SAMEFIB_10332
  *Elset, elset=ASSEMBLY_SCALP-1_SAMEFIB_10333
  *Elset, elset=ASSEMBLY_SCALP-1_SAMEFIB_10334
  *Elset, elset=ASSEMBLY_SCALP-1_SAMEFIB_10335
  *Elset, elset=ASSEMBLY_SCALP-1_SAMEFIB_10336
  *Elset, elset=ASSEMBLY_SCALP-1_SAMEFIB_10337
  *Elset, elset=ASSEMBLY_SCALP-1_SAMEFIB_10338
  *Elset, elset=ASSEMBLY_SCALP-1_SAMEFIB_10339
  *Elset, elset=ASSEMBLY_SCALP-1_SAMEFIB_1034
  *Elset, elset=ASSEMBLY_SCALP-1_SAMEFIB_10340
  *Elset, elset=ASSEMBLY_SCALP-1_SAMEFIB_10341
  *Elset, elset=ASSEMBLY_SCALP-1_SAMEFIB_10342
  *Elset, elset=ASSEMBLY_SCALP-1_SAMEFIB_10343
  *Elset, elset=ASSEMBLY_SCALP-1_SAMEFIB_10344
  *Elset, elset=ASSEMBLY_SCALP-1_SAMEFIB_10345
  *Elset, elset=ASSEMBLY_SCALP-1_SAMEFIB_10346
  *Elset, elset=ASSEMBLY_SCALP-1_SAMEFIB_10347
  *Elset, elset=ASSEMBLY_SCALP-1_SAMEFIB_10348
  *Elset, elset=ASSEMBLY_SCALP-1_SAMEFIB_10349
  *Elset, elset=ASSEMBLY_SCALP-1_SAMEFIB_1035
  *Elset, elset=ASSEMBLY_SCALP-1_SAMEFIB_10350
  *Elset, elset=ASSEMBLY_SCALP-1_SAMEFIB_10351
  *Elset, elset=ASSEMBLY_SCALP-1_SAMEFIB_10352
  *Elset, elset=ASSEMBLY_SCALP-1_SAMEFIB_10353
  *Elset, elset=ASSEMBLY_SCALP-1_SAMEFIB_10354
  *Elset, elset=ASSEMBLY_SCALP-1_SAMEFIB_10355
  *Elset, elset=ASSEMBLY_SCALP-1_SAMEFIB_10356
  *Elset, elset=ASSEMBLY_SCALP-1_SAMEFIB_10357
  *Elset, elset=ASSEMBLY_SCALP-1_SAMEFIB_10358
  *Elset, elset=ASSEMBLY_SCALP-1_SAMEFIB_10359
  *Elset, elset=ASSEMBLY_SCALP-1_SAMEFIB_1036
  *Elset, elset=ASSEMBLY_SCALP-1_SAMEFIB_10360
  *Elset, elset=ASSEMBLY_SCALP-1_SAMEFIB_10361
  *Elset, elset=ASSEMBLY_SCALP-1_SAMEFIB_10362
  *Elset, elset=ASSEMBLY_SCALP-1_SAMEFIB_10363
  *Elset, elset=ASSEMBLY_SCALP-1_SAMEFIB_10364
  *Elset, elset=ASSEMBLY_SCALP-1_SAMEFIB_10365
  *Elset, elset=ASSEMBLY_SCALP-1_SAMEFIB_10366
  *Elset, elset=ASSEMBLY_SCALP-1_SAMEFIB_10367
  *Elset, elset=ASSEMBLY_SCALP-1_SAMEFIB_10368
  *Elset, elset=ASSEMBLY_SCALP-1_SAMEFIB_10369
  *Elset, elset=ASSEMBLY_SCALP-1_SAMEFIB_1037
  *Elset, elset=ASSEMBLY_SCALP-1_SAMEFIB_10370
  *Elset, elset=ASSEMBLY_SCALP-1_SAMEFIB_10371
  *Elset, elset=ASSEMBLY_SCALP-1_SAMEFIB_10372
  *Elset, elset=ASSEMBLY_SCALP-1_SAMEFIB_10373
  *Elset, elset=ASSEMBLY_SCALP-1_SAMEFIB_10374
  *Elset, elset=ASSEMBLY_SCALP-1_SAMEFIB_10375
  *Elset, elset=ASSEMBLY_SCALP-1_SAMEFIB_10376
  *Elset, elset=ASSEMBLY_SCALP-1_SAMEFIB_10377
  *Elset, elset=ASSEMBLY_SCALP-1_SAMEFIB_10378
  *Elset, elset=ASSEMBLY_SCALP-1_SAMEFIB_10379
  *Elset, elset=ASSEMBLY_SCALP-1_SAMEFIB_1038
  *Elset, elset=ASSEMBLY_SCALP-1_SAMEFIB_10380
  *Elset, elset=ASSEMBLY_SCALP-1_SAMEFIB_10381
  *Elset, elset=ASSEMBLY_SCALP-1_SAMEFIB_10382
  *Elset, elset=ASSEMBLY_SCALP-1_SAMEFIB_10383
  *Elset, elset=ASSEMBLY_SCALP-1_SAMEFIB_10384
  *Elset, elset=ASSEMBLY_SCALP-1_SAMEFIB_10385
  *Elset, elset=ASSEMBLY_SCALP-1_SAMEFIB_10386
  *Elset, elset=ASSEMBLY_SCALP-1_SAMEFIB_10387
  *Elset, elset=ASSEMBLY_SCALP-1_SAMEFIB_10388
  *Elset, elset=ASSEMBLY_SCALP-1_SAMEFIB_10389
  *Elset, elset=ASSEMBLY_SCALP-1_SAMEFIB_1039
  *Elset, elset=ASSEMBLY_SCALP-1_SAMEFIB_10390
  *Elset, elset=ASSEMBLY_SCALP-1_SAMEFIB_10391
  *Elset, elset=ASSEMBLY_SCALP-1_SAMEFIB_10392
  *Elset, elset=ASSEMBLY_SCALP-1_SAMEFIB_10393
  *Elset, elset=ASSEMBLY_SCALP-1_SAMEFIB_10394
  *Elset, elset=ASSEMBLY_SCALP-1_SAMEFIB_10395
  *Elset, elset=ASSEMBLY_SCALP-1_SAMEFIB_10396
  *Elset, elset=ASSEMBLY_SCALP-1_SAMEFIB_10397
  *Elset, elset=ASSEMBLY_SCALP-1_SAMEFIB_10398
  *Elset, elset=ASSEMBLY_SCALP-1_SAMEFIB_10399
  *Elset, elset=ASSEMBLY_SCALP-1_SAMEFIB_104
  *Elset, elset=ASSEMBLY_SCALP-1_SAMEFIB_1040
  *Elset, elset=ASSEMBLY_SCALP-1_SAMEFIB_10400
  *Elset, elset=ASSEMBLY_SCALP-1_SAMEFIB_10401
  *Elset, elset=ASSEMBLY_SCALP-1_SAMEFIB_10402
  *Elset, elset=ASSEMBLY_SCALP-1_SAMEFIB_10403
  *Elset, elset=ASSEMBLY_SCALP-1_SAMEFIB_10404
  *Elset, elset=ASSEMBLY_SCALP-1_SAMEFIB_10405
  *Elset, elset=ASSEMBLY_SCALP-1_SAMEFIB_10406
  *Elset, elset=ASSEMBLY_SCALP-1_SAMEFIB_10407
  *Elset, elset=ASSEMBLY_SCALP-1_SAMEFIB_10408
  *Elset, elset=ASSEMBLY_SCALP-1_SAMEFIB_10409
  *Elset, elset=ASSEMBLY_SCALP-1_SAMEFIB_1041
  *Elset, elset=ASSEMBLY_SCALP-1_SAMEFIB_10410
  *Elset, elset=ASSEMBLY_SCALP-1_SAMEFIB_10411
  *Elset, elset=ASSEMBLY_SCALP-1_SAMEFIB_10412
  *Elset, elset=ASSEMBLY_SCALP-1_SAMEFIB_10413
  *Elset, elset=ASSEMBLY_SCALP-1_SAMEFIB_10414
  *Elset, elset=ASSEMBLY_SCALP-1_SAMEFIB_10415
  *Elset, elset=ASSEMBLY_SCALP-1_SAMEFIB_10416
  *Elset, elset=ASSEMBLY_SCALP-1_SAMEFIB_10417
  *Elset, elset=ASSEMBLY_SCALP-1_SAMEFIB_10418
  *Elset, elset=ASSEMBLY_SCALP-1_SAMEFIB_10419
  *Elset, elset=ASSEMBLY_SCALP-1_SAMEFIB_1042
  *Elset, elset=ASSEMBLY_SCALP-1_SAMEFIB_10420
  *Elset, elset=ASSEMBLY_SCALP-1_SAMEFIB_10421
  *Elset, elset=ASSEMBLY_SCALP-1_SAMEFIB_10422
  *Elset, elset=ASSEMBLY_SCALP-1_SAMEFIB_10423
  *Elset, elset=ASSEMBLY_SCALP-1_SAMEFIB_10424
  *Elset, elset=ASSEMBLY_SCALP-1_SAMEFIB_10425
  *Elset, elset=ASSEMBLY_SCALP-1_SAMEFIB_10426
  *Elset, elset=ASSEMBLY_SCALP-1_SAMEFIB_10427
  *Elset, elset=ASSEMBLY_SCALP-1_SAMEFIB_10428
  *Elset, elset=ASSEMBLY_SCALP-1_SAMEFIB_10429
  *Elset, elset=ASSEMBLY_SCALP-1_SAMEFIB_1043
  *Elset, elset=ASSEMBLY_SCALP-1_SAMEFIB_10430
  *Elset, elset=ASSEMBLY_SCALP-1_SAMEFIB_10431
  *Elset, elset=ASSEMBLY_SCALP-1_SAMEFIB_10432
  *Elset, elset=ASSEMBLY_SCALP-1_SAMEFIB_10433
  *Elset, elset=ASSEMBLY_SCALP-1_SAMEFIB_10434
  *Elset, elset=ASSEMBLY_SCALP-1_SAMEFIB_10435
  *Elset, elset=ASSEMBLY_SCALP-1_SAMEFIB_10436
  *Elset, elset=ASSEMBLY_SCALP-1_SAMEFIB_10437
  *Elset, elset=ASSEMBLY_SCALP-1_SAMEFIB_10438
  *Elset, elset=ASSEMBLY_SCALP-1_SAMEFIB_10439
  *Elset, elset=ASSEMBLY_SCALP-1_SAMEFIB_1044
  *Elset, elset=ASSEMBLY_SCALP-1_SAMEFIB_10440
  *Elset, elset=ASSEMBLY_SCALP-1_SAMEFIB_10441
  *Elset, elset=ASSEMBLY_SCALP-1_SAMEFIB_10442
  *Elset, elset=ASSEMBLY_SCALP-1_SAMEFIB_10443
  *Elset, elset=ASSEMBLY_SCALP-1_SAMEFIB_10444
  *Elset, elset=ASSEMBLY_SCALP-1_SAMEFIB_10445
  *Elset, elset=ASSEMBLY_SCALP-1_SAMEFIB_10446
  *Elset, elset=ASSEMBLY_SCALP-1_SAMEFIB_10447
  *Elset, elset=ASSEMBLY_SCALP-1_SAMEFIB_10448
  *Elset, elset=ASSEMBLY_SCALP-1_SAMEFIB_10449
  *Elset, elset=ASSEMBLY_SCALP-1_SAMEFIB_1045
  *Elset, elset=ASSEMBLY_SCALP-1_SAMEFIB_10450
  *Elset, elset=ASSEMBLY_SCALP-1_SAMEFIB_10451
  *Elset, elset=ASSEMBLY_SCALP-1_SAMEFIB_10452
  *Elset, elset=ASSEMBLY_SCALP-1_SAMEFIB_10453
  *Elset, elset=ASSEMBLY_SCALP-1_SAMEFIB_10454
  *Elset, elset=ASSEMBLY_SCALP-1_SAMEFIB_10455
  *Elset, elset=ASSEMBLY_SCALP-1_SAMEFIB_10456
  *Elset, elset=ASSEMBLY_SCALP-1_SAMEFIB_10457
  *Elset, elset=ASSEMBLY_SCALP-1_SAMEFIB_10458
  *Elset, elset=ASSEMBLY_SCALP-1_SAMEFIB_10459
  *Elset, elset=ASSEMBLY_SCALP-1_SAMEFIB_1046
  *Elset, elset=ASSEMBLY_SCALP-1_SAMEFIB_10460
  *Elset, elset=ASSEMBLY_SCALP-1_SAMEFIB_10461
  *Elset, elset=ASSEMBLY_SCALP-1_SAMEFIB_10462
  *Elset, elset=ASSEMBLY_SCALP-1_SAMEFIB_10463
  *Elset, elset=ASSEMBLY_SCALP-1_SAMEFIB_10464
  *Elset, elset=ASSEMBLY_SCALP-1_SAMEFIB_10465
  *Elset, elset=ASSEMBLY_SCALP-1_SAMEFIB_10466
  *Elset, elset=ASSEMBLY_SCALP-1_SAMEFIB_10467
  *Elset, elset=ASSEMBLY_SCALP-1_SAMEFIB_10468
  *Elset, elset=ASSEMBLY_SCALP-1_SAMEFIB_10469
  *Elset, elset=ASSEMBLY_SCALP-1_SAMEFIB_1047
  *Elset, elset=ASSEMBLY_SCALP-1_SAMEFIB_10470
  *Elset, elset=ASSEMBLY_SCALP-1_SAMEFIB_10471
  *Elset, elset=ASSEMBLY_SCALP-1_SAMEFIB_10472
  *Elset, elset=ASSEMBLY_SCALP-1_SAMEFIB_10473
  *Elset, elset=ASSEMBLY_SCALP-1_SAMEFIB_10474
  *Elset, elset=ASSEMBLY_SCALP-1_SAMEFIB_10475
  *Elset, elset=ASSEMBLY_SCALP-1_SAMEFIB_10476
  *Elset, elset=ASSEMBLY_SCALP-1_SAMEFIB_10477
  *Elset, elset=ASSEMBLY_SCALP-1_SAMEFIB_10478
  *Elset, elset=ASSEMBLY_SCALP-1_SAMEFIB_10479
  *Elset, elset=ASSEMBLY_SCALP-1_SAMEFIB_1048
  *Elset, elset=ASSEMBLY_SCALP-1_SAMEFIB_10480
  *Elset, elset=ASSEMBLY_SCALP-1_SAMEFIB_10481
  *Elset, elset=ASSEMBLY_SCALP-1_SAMEFIB_10482
  *Elset, elset=ASSEMBLY_SCALP-1_SAMEFIB_10483
  *Elset, elset=ASSEMBLY_SCALP-1_SAMEFIB_10484
  *Elset, elset=ASSEMBLY_SCALP-1_SAMEFIB_10485
  *Elset, elset=ASSEMBLY_SCALP-1_SAMEFIB_10486
  *Elset, elset=ASSEMBLY_SCALP-1_SAMEFIB_10487
  *Elset, elset=ASSEMBLY_SCALP-1_SAMEFIB_10488
  *Elset, elset=ASSEMBLY_SCALP-1_SAMEFIB_10489
  *Elset, elset=ASSEMBLY_SCALP-1_SAMEFIB_1049
  *Elset, elset=ASSEMBLY_SCALP-1_SAMEFIB_10490
  *Elset, elset=ASSEMBLY_SCALP-1_SAMEFIB_10491
  *Elset, elset=ASSEMBLY_SCALP-1_SAMEFIB_10492
  *Elset, elset=ASSEMBLY_SCALP-1_SAMEFIB_10493
  *Elset, elset=ASSEMBLY_SCALP-1_SAMEFIB_10494
  *Elset, elset=ASSEMBLY_SCALP-1_SAMEFIB_10495
  *Elset, elset=ASSEMBLY_SCALP-1_SAMEFIB_10496
  *Elset, elset=ASSEMBLY_SCALP-1_SAMEFIB_10497
  *Elset, elset=ASSEMBLY_SCALP-1_SAMEFIB_10498
  *Elset, elset=ASSEMBLY_SCALP-1_SAMEFIB_10499
  *Elset, elset=ASSEMBLY_SCALP-1_SAMEFIB_105
  *Elset, elset=ASSEMBLY_SCALP-1_SAMEFIB_1050
  *Elset, elset=ASSEMBLY_SCALP-1_SAMEFIB_10500
  *Elset, elset=ASSEMBLY_SCALP-1_SAMEFIB_10501
  *Elset, elset=ASSEMBLY_SCALP-1_SAMEFIB_10502
  *Elset, elset=ASSEMBLY_SCALP-1_SAMEFIB_10503
  *Elset, elset=ASSEMBLY_SCALP-1_SAMEFIB_10504
  *Elset, elset=ASSEMBLY_SCALP-1_SAMEFIB_10505
  *Elset, elset=ASSEMBLY_SCALP-1_SAMEFIB_10506
  *Elset, elset=ASSEMBLY_SCALP-1_SAMEFIB_10507
  *Elset, elset=ASSEMBLY_SCALP-1_SAMEFIB_10508
  *Elset, elset=ASSEMBLY_SCALP-1_SAMEFIB_10509
  *Elset, elset=ASSEMBLY_SCALP-1_SAMEFIB_1051
  *Elset, elset=ASSEMBLY_SCALP-1_SAMEFIB_10510
  *Elset, elset=ASSEMBLY_SCALP-1_SAMEFIB_10511
  *Elset, elset=ASSEMBLY_SCALP-1_SAMEFIB_10512
  *Elset, elset=ASSEMBLY_SCALP-1_SAMEFIB_10513
  *Elset, elset=ASSEMBLY_SCALP-1_SAMEFIB_10514
  *Elset, elset=ASSEMBLY_SCALP-1_SAMEFIB_10515
  *Elset, elset=ASSEMBLY_SCALP-1_SAMEFIB_10516
  *Elset, elset=ASSEMBLY_SCALP-1_SAMEFIB_10517
  *Elset, elset=ASSEMBLY_SCALP-1_SAMEFIB_10518
  *Elset, elset=ASSEMBLY_SCALP-1_SAMEFIB_10519
  *Elset, elset=ASSEMBLY_SCALP-1_SAMEFIB_1052
  *Elset, elset=ASSEMBLY_SCALP-1_SAMEFIB_10520
  *Elset, elset=ASSEMBLY_SCALP-1_SAMEFIB_10521
  *Elset, elset=ASSEMBLY_SCALP-1_SAMEFIB_10522
  *Elset, elset=ASSEMBLY_SCALP-1_SAMEFIB_10523
  *Elset, elset=ASSEMBLY_SCALP-1_SAMEFIB_10524
  *Elset, elset=ASSEMBLY_SCALP-1_SAMEFIB_10525
  *Elset, elset=ASSEMBLY_SCALP-1_SAMEFIB_10526
  *Elset, elset=ASSEMBLY_SCALP-1_SAMEFIB_10527
  *Elset, elset=ASSEMBLY_SCALP-1_SAMEFIB_10528
  *Elset, elset=ASSEMBLY_SCALP-1_SAMEFIB_10529
  *Elset, elset=ASSEMBLY_SCALP-1_SAMEFIB_1053
  *Elset, elset=ASSEMBLY_SCALP-1_SAMEFIB_10530
  *Elset, elset=ASSEMBLY_SCALP-1_SAMEFIB_10531
  *Elset, elset=ASSEMBLY_SCALP-1_SAMEFIB_10532
  *Elset, elset=ASSEMBLY_SCALP-1_SAMEFIB_10533
  *Elset, elset=ASSEMBLY_SCALP-1_SAMEFIB_10534
  *Elset, elset=ASSEMBLY_SCALP-1_SAMEFIB_10535
  *Elset, elset=ASSEMBLY_SCALP-1_SAMEFIB_10536
  *Elset, elset=ASSEMBLY_SCALP-1_SAMEFIB_10537
  *Elset, elset=ASSEMBLY_SCALP-1_SAMEFIB_10538
  *Elset, elset=ASSEMBLY_SCALP-1_SAMEFIB_10539
  *Elset, elset=ASSEMBLY_SCALP-1_SAMEFIB_1054
  *Elset, elset=ASSEMBLY_SCALP-1_SAMEFIB_10540
  *Elset, elset=ASSEMBLY_SCALP-1_SAMEFIB_10541
  *Elset, elset=ASSEMBLY_SCALP-1_SAMEFIB_10542
  *Elset, elset=ASSEMBLY_SCALP-1_SAMEFIB_10543
  *Elset, elset=ASSEMBLY_SCALP-1_SAMEFIB_10544
  *Elset, elset=ASSEMBLY_SCALP-1_SAMEFIB_10545
  *Elset, elset=ASSEMBLY_SCALP-1_SAMEFIB_10546
  *Elset, elset=ASSEMBLY_SCALP-1_SAMEFIB_10547
  *Elset, elset=ASSEMBLY_SCALP-1_SAMEFIB_10548
  *Elset, elset=ASSEMBLY_SCALP-1_SAMEFIB_10549
  *Elset, elset=ASSEMBLY_SCALP-1_SAMEFIB_1055
  *Elset, elset=ASSEMBLY_SCALP-1_SAMEFIB_10550
  *Elset, elset=ASSEMBLY_SCALP-1_SAMEFIB_10551
  *Elset, elset=ASSEMBLY_SCALP-1_SAMEFIB_10552
  *Elset, elset=ASSEMBLY_SCALP-1_SAMEFIB_10553
  *Elset, elset=ASSEMBLY_SCALP-1_SAMEFIB_10554
  *Elset, elset=ASSEMBLY_SCALP-1_SAMEFIB_10555
  *Elset, elset=ASSEMBLY_SCALP-1_SAMEFIB_10556
  *Elset, elset=ASSEMBLY_SCALP-1_SAMEFIB_10557
  *Elset, elset=ASSEMBLY_SCALP-1_SAMEFIB_10558
  *Elset, elset=ASSEMBLY_SCALP-1_SAMEFIB_10559
  *Elset, elset=ASSEMBLY_SCALP-1_SAMEFIB_1056
  *Elset, elset=ASSEMBLY_SCALP-1_SAMEFIB_10560
  *Elset, elset=ASSEMBLY_SCALP-1_SAMEFIB_10561
  *Elset, elset=ASSEMBLY_SCALP-1_SAMEFIB_10562
  *Elset, elset=ASSEMBLY_SCALP-1_SAMEFIB_10563
  *Elset, elset=ASSEMBLY_SCALP-1_SAMEFIB_10564
  *Elset, elset=ASSEMBLY_SCALP-1_SAMEFIB_10565
  *Elset, elset=ASSEMBLY_SCALP-1_SAMEFIB_10566
  *Elset, elset=ASSEMBLY_SCALP-1_SAMEFIB_10567
  *Elset, elset=ASSEMBLY_SCALP-1_SAMEFIB_10568
  *Elset, elset=ASSEMBLY_SCALP-1_SAMEFIB_10569
  *Elset, elset=ASSEMBLY_SCALP-1_SAMEFIB_1057
  *Elset, elset=ASSEMBLY_SCALP-1_SAMEFIB_10570
  *Elset, elset=ASSEMBLY_SCALP-1_SAMEFIB_10571
  *Elset, elset=ASSEMBLY_SCALP-1_SAMEFIB_10572
  *Elset, elset=ASSEMBLY_SCALP-1_SAMEFIB_10573
  *Elset, elset=ASSEMBLY_SCALP-1_SAMEFIB_10574
  *Elset, elset=ASSEMBLY_SCALP-1_SAMEFIB_10575
  *Elset, elset=ASSEMBLY_SCALP-1_SAMEFIB_10576
  *Elset, elset=ASSEMBLY_SCALP-1_SAMEFIB_10577
  *Elset, elset=ASSEMBLY_SCALP-1_SAMEFIB_10578
  *Elset, elset=ASSEMBLY_SCALP-1_SAMEFIB_10579
  *Elset, elset=ASSEMBLY_SCALP-1_SAMEFIB_1058
  *Elset, elset=ASSEMBLY_SCALP-1_SAMEFIB_10580
  *Elset, elset=ASSEMBLY_SCALP-1_SAMEFIB_10581
  *Elset, elset=ASSEMBLY_SCALP-1_SAMEFIB_10582
  *Elset, elset=ASSEMBLY_SCALP-1_SAMEFIB_10583
  *Elset, elset=ASSEMBLY_SCALP-1_SAMEFIB_10584
  *Elset, elset=ASSEMBLY_SCALP-1_SAMEFIB_10585
  *Elset, elset=ASSEMBLY_SCALP-1_SAMEFIB_10586
  *Elset, elset=ASSEMBLY_SCALP-1_SAMEFIB_10587
  *Elset, elset=ASSEMBLY_SCALP-1_SAMEFIB_10588
  *Elset, elset=ASSEMBLY_SCALP-1_SAMEFIB_10589
  *Elset, elset=ASSEMBLY_SCALP-1_SAMEFIB_1059
  *Elset, elset=ASSEMBLY_SCALP-1_SAMEFIB_10590
  *Elset, elset=ASSEMBLY_SCALP-1_SAMEFIB_10591
  *Elset, elset=ASSEMBLY_SCALP-1_SAMEFIB_10592
  *Elset, elset=ASSEMBLY_SCALP-1_SAMEFIB_10593
  *Elset, elset=ASSEMBLY_SCALP-1_SAMEFIB_10594
  *Elset, elset=ASSEMBLY_SCALP-1_SAMEFIB_10595
  *Elset, elset=ASSEMBLY_SCALP-1_SAMEFIB_10596
  *Elset, elset=ASSEMBLY_SCALP-1_SAMEFIB_10597
  *Elset, elset=ASSEMBLY_SCALP-1_SAMEFIB_10598
  *Elset, elset=ASSEMBLY_SCALP-1_SAMEFIB_10599
  *Elset, elset=ASSEMBLY_SCALP-1_SAMEFIB_106
  *Elset, elset=ASSEMBLY_SCALP-1_SAMEFIB_1060
  *Elset, elset=ASSEMBLY_SCALP-1_SAMEFIB_10600
  *Elset, elset=ASSEMBLY_SCALP-1_SAMEFIB_10601
  *Elset, elset=ASSEMBLY_SCALP-1_SAMEFIB_10602
  *Elset, elset=ASSEMBLY_SCALP-1_SAMEFIB_10603
  *Elset, elset=ASSEMBLY_SCALP-1_SAMEFIB_10604
  *Elset, elset=ASSEMBLY_SCALP-1_SAMEFIB_10605
  *Elset, elset=ASSEMBLY_SCALP-1_SAMEFIB_10606
  *Elset, elset=ASSEMBLY_SCALP-1_SAMEFIB_10607
  *Elset, elset=ASSEMBLY_SCALP-1_SAMEFIB_10608
  *Elset, elset=ASSEMBLY_SCALP-1_SAMEFIB_10609
  *Elset, elset=ASSEMBLY_SCALP-1_SAMEFIB_1061
  *Elset, elset=ASSEMBLY_SCALP-1_SAMEFIB_10610
  *Elset, elset=ASSEMBLY_SCALP-1_SAMEFIB_10611
  *Elset, elset=ASSEMBLY_SCALP-1_SAMEFIB_10612
  *Elset, elset=ASSEMBLY_SCALP-1_SAMEFIB_10613
  *Elset, elset=ASSEMBLY_SCALP-1_SAMEFIB_10614
  *Elset, elset=ASSEMBLY_SCALP-1_SAMEFIB_10615
  *Elset, elset=ASSEMBLY_SCALP-1_SAMEFIB_10616
  *Elset, elset=ASSEMBLY_SCALP-1_SAMEFIB_10617
  *Elset, elset=ASSEMBLY_SCALP-1_SAMEFIB_10618
  *Elset, elset=ASSEMBLY_SCALP-1_SAMEFIB_10619
  *Elset, elset=ASSEMBLY_SCALP-1_SAMEFIB_1062
  *Elset, elset=ASSEMBLY_SCALP-1_SAMEFIB_10620
  *Elset, elset=ASSEMBLY_SCALP-1_SAMEFIB_10621
  *Elset, elset=ASSEMBLY_SCALP-1_SAMEFIB_10622
  *Elset, elset=ASSEMBLY_SCALP-1_SAMEFIB_10623
  *Elset, elset=ASSEMBLY_SCALP-1_SAMEFIB_10624
  *Elset, elset=ASSEMBLY_SCALP-1_SAMEFIB_10625
  *Elset, elset=ASSEMBLY_SCALP-1_SAMEFIB_10626
  *Elset, elset=ASSEMBLY_SCALP-1_SAMEFIB_10627
  *Elset, elset=ASSEMBLY_SCALP-1_SAMEFIB_10628
  *Elset, elset=ASSEMBLY_SCALP-1_SAMEFIB_10629
  *Elset, elset=ASSEMBLY_SCALP-1_SAMEFIB_1063
  *Elset, elset=ASSEMBLY_SCALP-1_SAMEFIB_10630
  *Elset, elset=ASSEMBLY_SCALP-1_SAMEFIB_10631
  *Elset, elset=ASSEMBLY_SCALP-1_SAMEFIB_10632
  *Elset, elset=ASSEMBLY_SCALP-1_SAMEFIB_10633
  *Elset, elset=ASSEMBLY_SCALP-1_SAMEFIB_10634
  *Elset, elset=ASSEMBLY_SCALP-1_SAMEFIB_10635
  *Elset, elset=ASSEMBLY_SCALP-1_SAMEFIB_10636
  *Elset, elset=ASSEMBLY_SCALP-1_SAMEFIB_10637
  *Elset, elset=ASSEMBLY_SCALP-1_SAMEFIB_10638
  *Elset, elset=ASSEMBLY_SCALP-1_SAMEFIB_10639
  *Elset, elset=ASSEMBLY_SCALP-1_SAMEFIB_1064
  *Elset, elset=ASSEMBLY_SCALP-1_SAMEFIB_10640
  *Elset, elset=ASSEMBLY_SCALP-1_SAMEFIB_10641
  *Elset, elset=ASSEMBLY_SCALP-1_SAMEFIB_10642
  *Elset, elset=ASSEMBLY_SCALP-1_SAMEFIB_10643
  *Elset, elset=ASSEMBLY_SCALP-1_SAMEFIB_10644
  *Elset, elset=ASSEMBLY_SCALP-1_SAMEFIB_10645
  *Elset, elset=ASSEMBLY_SCALP-1_SAMEFIB_10646
  *Elset, elset=ASSEMBLY_SCALP-1_SAMEFIB_10647
  *Elset, elset=ASSEMBLY_SCALP-1_SAMEFIB_10648
  *Elset, elset=ASSEMBLY_SCALP-1_SAMEFIB_10649
  *Elset, elset=ASSEMBLY_SCALP-1_SAMEFIB_1065
  *Elset, elset=ASSEMBLY_SCALP-1_SAMEFIB_10650
  *Elset, elset=ASSEMBLY_SCALP-1_SAMEFIB_10651
  *Elset, elset=ASSEMBLY_SCALP-1_SAMEFIB_10652
  *Elset, elset=ASSEMBLY_SCALP-1_SAMEFIB_10653
  *Elset, elset=ASSEMBLY_SCALP-1_SAMEFIB_10654
  *Elset, elset=ASSEMBLY_SCALP-1_SAMEFIB_10655
  *Elset, elset=ASSEMBLY_SCALP-1_SAMEFIB_10656
  *Elset, elset=ASSEMBLY_SCALP-1_SAMEFIB_10657
  *Elset, elset=ASSEMBLY_SCALP-1_SAMEFIB_10658
  *Elset, elset=ASSEMBLY_SCALP-1_SAMEFIB_10659
  *Elset, elset=ASSEMBLY_SCALP-1_SAMEFIB_1066
  *Elset, elset=ASSEMBLY_SCALP-1_SAMEFIB_10660
  *Elset, elset=ASSEMBLY_SCALP-1_SAMEFIB_10661
  *Elset, elset=ASSEMBLY_SCALP-1_SAMEFIB_10662
  *Elset, elset=ASSEMBLY_SCALP-1_SAMEFIB_10663
  *Elset, elset=ASSEMBLY_SCALP-1_SAMEFIB_10664
  *Elset, elset=ASSEMBLY_SCALP-1_SAMEFIB_10665
  *Elset, elset=ASSEMBLY_SCALP-1_SAMEFIB_10666
  *Elset, elset=ASSEMBLY_SCALP-1_SAMEFIB_10667
  *Elset, elset=ASSEMBLY_SCALP-1_SAMEFIB_10668
  *Elset, elset=ASSEMBLY_SCALP-1_SAMEFIB_10669
  *Elset, elset=ASSEMBLY_SCALP-1_SAMEFIB_1067
  *Elset, elset=ASSEMBLY_SCALP-1_SAMEFIB_10670
  *Elset, elset=ASSEMBLY_SCALP-1_SAMEFIB_10671
  *Elset, elset=ASSEMBLY_SCALP-1_SAMEFIB_10672
  *Elset, elset=ASSEMBLY_SCALP-1_SAMEFIB_10673
  *Elset, elset=ASSEMBLY_SCALP-1_SAMEFIB_10674
  *Elset, elset=ASSEMBLY_SCALP-1_SAMEFIB_10675
  *Elset, elset=ASSEMBLY_SCALP-1_SAMEFIB_10676
  *Elset, elset=ASSEMBLY_SCALP-1_SAMEFIB_10677
  *Elset, elset=ASSEMBLY_SCALP-1_SAMEFIB_10678
  *Elset, elset=ASSEMBLY_SCALP-1_SAMEFIB_10679
  *Elset, elset=ASSEMBLY_SCALP-1_SAMEFIB_1068
  *Elset, elset=ASSEMBLY_SCALP-1_SAMEFIB_10680
  *Elset, elset=ASSEMBLY_SCALP-1_SAMEFIB_10681
  *Elset, elset=ASSEMBLY_SCALP-1_SAMEFIB_10682
  *Elset, elset=ASSEMBLY_SCALP-1_SAMEFIB_10683
  *Elset, elset=ASSEMBLY_SCALP-1_SAMEFIB_10684
  *Elset, elset=ASSEMBLY_SCALP-1_SAMEFIB_10685
  *Elset, elset=ASSEMBLY_SCALP-1_SAMEFIB_10686
  *Elset, elset=ASSEMBLY_SCALP-1_SAMEFIB_10687
  *Elset, elset=ASSEMBLY_SCALP-1_SAMEFIB_10688
  *Elset, elset=ASSEMBLY_SCALP-1_SAMEFIB_10689
  *Elset, elset=ASSEMBLY_SCALP-1_SAMEFIB_1069
  *Elset, elset=ASSEMBLY_SCALP-1_SAMEFIB_10690
  *Elset, elset=ASSEMBLY_SCALP-1_SAMEFIB_10691
  *Elset, elset=ASSEMBLY_SCALP-1_SAMEFIB_10692
  *Elset, elset=ASSEMBLY_SCALP-1_SAMEFIB_10693
  *Elset, elset=ASSEMBLY_SCALP-1_SAMEFIB_10694
  *Elset, elset=ASSEMBLY_SCALP-1_SAMEFIB_10695
  *Elset, elset=ASSEMBLY_SCALP-1_SAMEFIB_10696
  *Elset, elset=ASSEMBLY_SCALP-1_SAMEFIB_10697
  *Elset, elset=ASSEMBLY_SCALP-1_SAMEFIB_10698
  *Elset, elset=ASSEMBLY_SCALP-1_SAMEFIB_10699
  *Elset, elset=ASSEMBLY_SCALP-1_SAMEFIB_107
  *Elset, elset=ASSEMBLY_SCALP-1_SAMEFIB_1070
  *Elset, elset=ASSEMBLY_SCALP-1_SAMEFIB_10700
  *Elset, elset=ASSEMBLY_SCALP-1_SAMEFIB_10701
  *Elset, elset=ASSEMBLY_SCALP-1_SAMEFIB_10702
  *Elset, elset=ASSEMBLY_SCALP-1_SAMEFIB_10703
  *Elset, elset=ASSEMBLY_SCALP-1_SAMEFIB_10704
  *Elset, elset=ASSEMBLY_SCALP-1_SAMEFIB_10705
  *Elset, elset=ASSEMBLY_SCALP-1_SAMEFIB_10706
  *Elset, elset=ASSEMBLY_SCALP-1_SAMEFIB_10707
  *Elset, elset=ASSEMBLY_SCALP-1_SAMEFIB_10708
  *Elset, elset=ASSEMBLY_SCALP-1_SAMEFIB_10709
  *Elset, elset=ASSEMBLY_SCALP-1_SAMEFIB_1071
  *Elset, elset=ASSEMBLY_SCALP-1_SAMEFIB_10710
  *Elset, elset=ASSEMBLY_SCALP-1_SAMEFIB_10711
  *Elset, elset=ASSEMBLY_SCALP-1_SAMEFIB_10712
  *Elset, elset=ASSEMBLY_SCALP-1_SAMEFIB_10713
  *Elset, elset=ASSEMBLY_SCALP-1_SAMEFIB_10714
  *Elset, elset=ASSEMBLY_SCALP-1_SAMEFIB_10715
  *Elset, elset=ASSEMBLY_SCALP-1_SAMEFIB_10716
  *Elset, elset=ASSEMBLY_SCALP-1_SAMEFIB_10717
  *Elset, elset=ASSEMBLY_SCALP-1_SAMEFIB_10718
  *Elset, elset=ASSEMBLY_SCALP-1_SAMEFIB_10719
  *Elset, elset=ASSEMBLY_SCALP-1_SAMEFIB_1072
  *Elset, elset=ASSEMBLY_SCALP-1_SAMEFIB_10720
  *Elset, elset=ASSEMBLY_SCALP-1_SAMEFIB_10721
  *Elset, elset=ASSEMBLY_SCALP-1_SAMEFIB_10722
  *Elset, elset=ASSEMBLY_SCALP-1_SAMEFIB_10723
  *Elset, elset=ASSEMBLY_SCALP-1_SAMEFIB_10724
  *Elset, elset=ASSEMBLY_SCALP-1_SAMEFIB_10725
  *Elset, elset=ASSEMBLY_SCALP-1_SAMEFIB_10726
  *Elset, elset=ASSEMBLY_SCALP-1_SAMEFIB_10727
  *Elset, elset=ASSEMBLY_SCALP-1_SAMEFIB_10728
  *Elset, elset=ASSEMBLY_SCALP-1_SAMEFIB_10729
  *Elset, elset=ASSEMBLY_SCALP-1_SAMEFIB_1073
  *Elset, elset=ASSEMBLY_SCALP-1_SAMEFIB_10730
  *Elset, elset=ASSEMBLY_SCALP-1_SAMEFIB_10731
  *Elset, elset=ASSEMBLY_SCALP-1_SAMEFIB_10732
  *Elset, elset=ASSEMBLY_SCALP-1_SAMEFIB_10733
  *Elset, elset=ASSEMBLY_SCALP-1_SAMEFIB_10734
  *Elset, elset=ASSEMBLY_SCALP-1_SAMEFIB_10735
  *Elset, elset=ASSEMBLY_SCALP-1_SAMEFIB_10736
  *Elset, elset=ASSEMBLY_SCALP-1_SAMEFIB_10737
  *Elset, elset=ASSEMBLY_SCALP-1_SAMEFIB_10738
  *Elset, elset=ASSEMBLY_SCALP-1_SAMEFIB_10739
  *Elset, elset=ASSEMBLY_SCALP-1_SAMEFIB_1074
  *Elset, elset=ASSEMBLY_SCALP-1_SAMEFIB_10740
  *Elset, elset=ASSEMBLY_SCALP-1_SAMEFIB_10741
  *Elset, elset=ASSEMBLY_SCALP-1_SAMEFIB_10742
  *Elset, elset=ASSEMBLY_SCALP-1_SAMEFIB_10743
  *Elset, elset=ASSEMBLY_SCALP-1_SAMEFIB_10744
  *Elset, elset=ASSEMBLY_SCALP-1_SAMEFIB_10745
  *Elset, elset=ASSEMBLY_SCALP-1_SAMEFIB_10746
  *Elset, elset=ASSEMBLY_SCALP-1_SAMEFIB_10747
  *Elset, elset=ASSEMBLY_SCALP-1_SAMEFIB_10748
  *Elset, elset=ASSEMBLY_SCALP-1_SAMEFIB_10749
  *Elset, elset=ASSEMBLY_SCALP-1_SAMEFIB_1075
  *Elset, elset=ASSEMBLY_SCALP-1_SAMEFIB_10750
  *Elset, elset=ASSEMBLY_SCALP-1_SAMEFIB_10751
  *Elset, elset=ASSEMBLY_SCALP-1_SAMEFIB_10752
  *Elset, elset=ASSEMBLY_SCALP-1_SAMEFIB_10753
  *Elset, elset=ASSEMBLY_SCALP-1_SAMEFIB_10754
  *Elset, elset=ASSEMBLY_SCALP-1_SAMEFIB_10755
  *Elset, elset=ASSEMBLY_SCALP-1_SAMEFIB_10756
  *Elset, elset=ASSEMBLY_SCALP-1_SAMEFIB_10757
  *Elset, elset=ASSEMBLY_SCALP-1_SAMEFIB_10758
  *Elset, elset=ASSEMBLY_SCALP-1_SAMEFIB_10759
  *Elset, elset=ASSEMBLY_SCALP-1_SAMEFIB_1076
  *Elset, elset=ASSEMBLY_SCALP-1_SAMEFIB_10760
  *Elset, elset=ASSEMBLY_SCALP-1_SAMEFIB_10761
  *Elset, elset=ASSEMBLY_SCALP-1_SAMEFIB_10762
  *Elset, elset=ASSEMBLY_SCALP-1_SAMEFIB_10763
  *Elset, elset=ASSEMBLY_SCALP-1_SAMEFIB_10764
  *Elset, elset=ASSEMBLY_SCALP-1_SAMEFIB_10765
  *Elset, elset=ASSEMBLY_SCALP-1_SAMEFIB_10766
  *Elset, elset=ASSEMBLY_SCALP-1_SAMEFIB_10767
  *Elset, elset=ASSEMBLY_SCALP-1_SAMEFIB_10768
  *Elset, elset=ASSEMBLY_SCALP-1_SAMEFIB_10769
  *Elset, elset=ASSEMBLY_SCALP-1_SAMEFIB_1077
  *Elset, elset=ASSEMBLY_SCALP-1_SAMEFIB_10770
  *Elset, elset=ASSEMBLY_SCALP-1_SAMEFIB_10771
  *Elset, elset=ASSEMBLY_SCALP-1_SAMEFIB_10772
  *Elset, elset=ASSEMBLY_SCALP-1_SAMEFIB_10773
  *Elset, elset=ASSEMBLY_SCALP-1_SAMEFIB_10774
  *Elset, elset=ASSEMBLY_SCALP-1_SAMEFIB_10775
  *Elset, elset=ASSEMBLY_SCALP-1_SAMEFIB_10776
  *Elset, elset=ASSEMBLY_SCALP-1_SAMEFIB_10777
  *Elset, elset=ASSEMBLY_SCALP-1_SAMEFIB_10778
  *Elset, elset=ASSEMBLY_SCALP-1_SAMEFIB_10779
  *Elset, elset=ASSEMBLY_SCALP-1_SAMEFIB_1078
  *Elset, elset=ASSEMBLY_SCALP-1_SAMEFIB_10780
  *Elset, elset=ASSEMBLY_SCALP-1_SAMEFIB_10781
  *Elset, elset=ASSEMBLY_SCALP-1_SAMEFIB_10782
  *Elset, elset=ASSEMBLY_SCALP-1_SAMEFIB_10783
  *Elset, elset=ASSEMBLY_SCALP-1_SAMEFIB_10784
  *Elset, elset=ASSEMBLY_SCALP-1_SAMEFIB_10785
  *Elset, elset=ASSEMBLY_SCALP-1_SAMEFIB_10786
  *Elset, elset=ASSEMBLY_SCALP-1_SAMEFIB_10787
  *Elset, elset=ASSEMBLY_SCALP-1_SAMEFIB_10788
  *Elset, elset=ASSEMBLY_SCALP-1_SAMEFIB_10789
  *Elset, elset=ASSEMBLY_SCALP-1_SAMEFIB_1079
  *Elset, elset=ASSEMBLY_SCALP-1_SAMEFIB_10790
  *Elset, elset=ASSEMBLY_SCALP-1_SAMEFIB_10791
  *Elset, elset=ASSEMBLY_SCALP-1_SAMEFIB_10792
  *Elset, elset=ASSEMBLY_SCALP-1_SAMEFIB_10793
  *Elset, elset=ASSEMBLY_SCALP-1_SAMEFIB_10794
  *Elset, elset=ASSEMBLY_SCALP-1_SAMEFIB_10795
  *Elset, elset=ASSEMBLY_SCALP-1_SAMEFIB_10796
  *Elset, elset=ASSEMBLY_SCALP-1_SAMEFIB_10797
  *Elset, elset=ASSEMBLY_SCALP-1_SAMEFIB_10798
  *Elset, elset=ASSEMBLY_SCALP-1_SAMEFIB_10799
  *Elset, elset=ASSEMBLY_SCALP-1_SAMEFIB_108
  *Elset, elset=ASSEMBLY_SCALP-1_SAMEFIB_1080
  *Elset, elset=ASSEMBLY_SCALP-1_SAMEFIB_10800
  *Elset, elset=ASSEMBLY_SCALP-1_SAMEFIB_10801
  *Elset, elset=ASSEMBLY_SCALP-1_SAMEFIB_10802
  *Elset, elset=ASSEMBLY_SCALP-1_SAMEFIB_10803
  *Elset, elset=ASSEMBLY_SCALP-1_SAMEFIB_10804
  *Elset, elset=ASSEMBLY_SCALP-1_SAMEFIB_10805
  *Elset, elset=ASSEMBLY_SCALP-1_SAMEFIB_10806
  *Elset, elset=ASSEMBLY_SCALP-1_SAMEFIB_10807
  *Elset, elset=ASSEMBLY_SCALP-1_SAMEFIB_10808
  *Elset, elset=ASSEMBLY_SCALP-1_SAMEFIB_10809
  *Elset, elset=ASSEMBLY_SCALP-1_SAMEFIB_1081
  *Elset, elset=ASSEMBLY_SCALP-1_SAMEFIB_10810
  *Elset, elset=ASSEMBLY_SCALP-1_SAMEFIB_10811
  *Elset, elset=ASSEMBLY_SCALP-1_SAMEFIB_10812
  *Elset, elset=ASSEMBLY_SCALP-1_SAMEFIB_10813
  *Elset, elset=ASSEMBLY_SCALP-1_SAMEFIB_10814
  *Elset, elset=ASSEMBLY_SCALP-1_SAMEFIB_10815
  *Elset, elset=ASSEMBLY_SCALP-1_SAMEFIB_10816
  *Elset, elset=ASSEMBLY_SCALP-1_SAMEFIB_10817
  *Elset, elset=ASSEMBLY_SCALP-1_SAMEFIB_10818
  *Elset, elset=ASSEMBLY_SCALP-1_SAMEFIB_10819
  *Elset, elset=ASSEMBLY_SCALP-1_SAMEFIB_1082
  *Elset, elset=ASSEMBLY_SCALP-1_SAMEFIB_10820
  *Elset, elset=ASSEMBLY_SCALP-1_SAMEFIB_10821
  *Elset, elset=ASSEMBLY_SCALP-1_SAMEFIB_10822
  *Elset, elset=ASSEMBLY_SCALP-1_SAMEFIB_10823
  *Elset, elset=ASSEMBLY_SCALP-1_SAMEFIB_10824
  *Elset, elset=ASSEMBLY_SCALP-1_SAMEFIB_10825
  *Elset, elset=ASSEMBLY_SCALP-1_SAMEFIB_10826
  *Elset, elset=ASSEMBLY_SCALP-1_SAMEFIB_10827
  *Elset, elset=ASSEMBLY_SCALP-1_SAMEFIB_10828
  *Elset, elset=ASSEMBLY_SCALP-1_SAMEFIB_10829
  *Elset, elset=ASSEMBLY_SCALP-1_SAMEFIB_1083
  *Elset, elset=ASSEMBLY_SCALP-1_SAMEFIB_10830
  *Elset, elset=ASSEMBLY_SCALP-1_SAMEFIB_10831
  *Elset, elset=ASSEMBLY_SCALP-1_SAMEFIB_10832
  *Elset, elset=ASSEMBLY_SCALP-1_SAMEFIB_10833
  *Elset, elset=ASSEMBLY_SCALP-1_SAMEFIB_10834
  *Elset, elset=ASSEMBLY_SCALP-1_SAMEFIB_10835
  *Elset, elset=ASSEMBLY_SCALP-1_SAMEFIB_10836
  *Elset, elset=ASSEMBLY_SCALP-1_SAMEFIB_10837
  *Elset, elset=ASSEMBLY_SCALP-1_SAMEFIB_10838
  *Elset, elset=ASSEMBLY_SCALP-1_SAMEFIB_10839
  *Elset, elset=ASSEMBLY_SCALP-1_SAMEFIB_1084
  *Elset, elset=ASSEMBLY_SCALP-1_SAMEFIB_10840
  *Elset, elset=ASSEMBLY_SCALP-1_SAMEFIB_10841
  *Elset, elset=ASSEMBLY_SCALP-1_SAMEFIB_10842
  *Elset, elset=ASSEMBLY_SCALP-1_SAMEFIB_10843
  *Elset, elset=ASSEMBLY_SCALP-1_SAMEFIB_10844
  *Elset, elset=ASSEMBLY_SCALP-1_SAMEFIB_10845
  *Elset, elset=ASSEMBLY_SCALP-1_SAMEFIB_10846
  *Elset, elset=ASSEMBLY_SCALP-1_SAMEFIB_10847
  *Elset, elset=ASSEMBLY_SCALP-1_SAMEFIB_10848
  *Elset, elset=ASSEMBLY_SCALP-1_SAMEFIB_10849
  *Elset, elset=ASSEMBLY_SCALP-1_SAMEFIB_1085
  *Elset, elset=ASSEMBLY_SCALP-1_SAMEFIB_10850
  *Elset, elset=ASSEMBLY_SCALP-1_SAMEFIB_10851
  *Elset, elset=ASSEMBLY_SCALP-1_SAMEFIB_10852
  *Elset, elset=ASSEMBLY_SCALP-1_SAMEFIB_10853
  *Elset, elset=ASSEMBLY_SCALP-1_SAMEFIB_10854
  *Elset, elset=ASSEMBLY_SCALP-1_SAMEFIB_10855
  *Elset, elset=ASSEMBLY_SCALP-1_SAMEFIB_10856
  *Elset, elset=ASSEMBLY_SCALP-1_SAMEFIB_10857
  *Elset, elset=ASSEMBLY_SCALP-1_SAMEFIB_10858
  *Elset, elset=ASSEMBLY_SCALP-1_SAMEFIB_10859
  *Elset, elset=ASSEMBLY_SCALP-1_SAMEFIB_1086
  *Elset, elset=ASSEMBLY_SCALP-1_SAMEFIB_10860
  *Elset, elset=ASSEMBLY_SCALP-1_SAMEFIB_10861
  *Elset, elset=ASSEMBLY_SCALP-1_SAMEFIB_10862
  *Elset, elset=ASSEMBLY_SCALP-1_SAMEFIB_10863
  *Elset, elset=ASSEMBLY_SCALP-1_SAMEFIB_10864
  *Elset, elset=ASSEMBLY_SCALP-1_SAMEFIB_10865
  *Elset, elset=ASSEMBLY_SCALP-1_SAMEFIB_10866
  *Elset, elset=ASSEMBLY_SCALP-1_SAMEFIB_10867
  *Elset, elset=ASSEMBLY_SCALP-1_SAMEFIB_10868
  *Elset, elset=ASSEMBLY_SCALP-1_SAMEFIB_10869
  *Elset, elset=ASSEMBLY_SCALP-1_SAMEFIB_1087
  *Elset, elset=ASSEMBLY_SCALP-1_SAMEFIB_10870
  *Elset, elset=ASSEMBLY_SCALP-1_SAMEFIB_10871
  *Elset, elset=ASSEMBLY_SCALP-1_SAMEFIB_10872
  *Elset, elset=ASSEMBLY_SCALP-1_SAMEFIB_10873
  *Elset, elset=ASSEMBLY_SCALP-1_SAMEFIB_10874
  *Elset, elset=ASSEMBLY_SCALP-1_SAMEFIB_10875
  *Elset, elset=ASSEMBLY_SCALP-1_SAMEFIB_10876
  *Elset, elset=ASSEMBLY_SCALP-1_SAMEFIB_10877
  *Elset, elset=ASSEMBLY_SCALP-1_SAMEFIB_10878
  *Elset, elset=ASSEMBLY_SCALP-1_SAMEFIB_10879
  *Elset, elset=ASSEMBLY_SCALP-1_SAMEFIB_1088
  *Elset, elset=ASSEMBLY_SCALP-1_SAMEFIB_10880
  *Elset, elset=ASSEMBLY_SCALP-1_SAMEFIB_10881
  *Elset, elset=ASSEMBLY_SCALP-1_SAMEFIB_10882
  *Elset, elset=ASSEMBLY_SCALP-1_SAMEFIB_10883
  *Elset, elset=ASSEMBLY_SCALP-1_SAMEFIB_10884
  *Elset, elset=ASSEMBLY_SCALP-1_SAMEFIB_10885
  *Elset, elset=ASSEMBLY_SCALP-1_SAMEFIB_10886
  *Elset, elset=ASSEMBLY_SCALP-1_SAMEFIB_10887
  *Elset, elset=ASSEMBLY_SCALP-1_SAMEFIB_10888
  *Elset, elset=ASSEMBLY_SCALP-1_SAMEFIB_10889
  *Elset, elset=ASSEMBLY_SCALP-1_SAMEFIB_1089
  *Elset, elset=ASSEMBLY_SCALP-1_SAMEFIB_10890
  *Elset, elset=ASSEMBLY_SCALP-1_SAMEFIB_10891
  *Elset, elset=ASSEMBLY_SCALP-1_SAMEFIB_10892
  *Elset, elset=ASSEMBLY_SCALP-1_SAMEFIB_10893
  *Elset, elset=ASSEMBLY_SCALP-1_SAMEFIB_10894
  *Elset, elset=ASSEMBLY_SCALP-1_SAMEFIB_10895
  *Elset, elset=ASSEMBLY_SCALP-1_SAMEFIB_10896
  *Elset, elset=ASSEMBLY_SCALP-1_SAMEFIB_10897
  *Elset, elset=ASSEMBLY_SCALP-1_SAMEFIB_10898
  *Elset, elset=ASSEMBLY_SCALP-1_SAMEFIB_10899
  *Elset, elset=ASSEMBLY_SCALP-1_SAMEFIB_109
  *Elset, elset=ASSEMBLY_SCALP-1_SAMEFIB_1090
  *Elset, elset=ASSEMBLY_SCALP-1_SAMEFIB_10900
  *Elset, elset=ASSEMBLY_SCALP-1_SAMEFIB_10901
  *Elset, elset=ASSEMBLY_SCALP-1_SAMEFIB_10902
  *Elset, elset=ASSEMBLY_SCALP-1_SAMEFIB_10903
  *Elset, elset=ASSEMBLY_SCALP-1_SAMEFIB_10904
  *Elset, elset=ASSEMBLY_SCALP-1_SAMEFIB_10905
  *Elset, elset=ASSEMBLY_SCALP-1_SAMEFIB_10906
  *Elset, elset=ASSEMBLY_SCALP-1_SAMEFIB_10907
  *Elset, elset=ASSEMBLY_SCALP-1_SAMEFIB_10908
  *Elset, elset=ASSEMBLY_SCALP-1_SAMEFIB_10909
  *Elset, elset=ASSEMBLY_SCALP-1_SAMEFIB_1091
  *Elset, elset=ASSEMBLY_SCALP-1_SAMEFIB_10910
  *Elset, elset=ASSEMBLY_SCALP-1_SAMEFIB_10911
  *Elset, elset=ASSEMBLY_SCALP-1_SAMEFIB_10912
  *Elset, elset=ASSEMBLY_SCALP-1_SAMEFIB_10913
  *Elset, elset=ASSEMBLY_SCALP-1_SAMEFIB_10914
  *Elset, elset=ASSEMBLY_SCALP-1_SAMEFIB_10915
  *Elset, elset=ASSEMBLY_SCALP-1_SAMEFIB_10916
  *Elset, elset=ASSEMBLY_SCALP-1_SAMEFIB_10917
  *Elset, elset=ASSEMBLY_SCALP-1_SAMEFIB_10918
  *Elset, elset=ASSEMBLY_SCALP-1_SAMEFIB_10919
  *Elset, elset=ASSEMBLY_SCALP-1_SAMEFIB_1092
  *Elset, elset=ASSEMBLY_SCALP-1_SAMEFIB_10920
  *Elset, elset=ASSEMBLY_SCALP-1_SAMEFIB_10921
  *Elset, elset=ASSEMBLY_SCALP-1_SAMEFIB_10922
  *Elset, elset=ASSEMBLY_SCALP-1_SAMEFIB_10923
  *Elset, elset=ASSEMBLY_SCALP-1_SAMEFIB_10924
  *Elset, elset=ASSEMBLY_SCALP-1_SAMEFIB_10925
  *Elset, elset=ASSEMBLY_SCALP-1_SAMEFIB_10926
  *Elset, elset=ASSEMBLY_SCALP-1_SAMEFIB_10927
  *Elset, elset=ASSEMBLY_SCALP-1_SAMEFIB_10928
  *Elset, elset=ASSEMBLY_SCALP-1_SAMEFIB_10929
  *Elset, elset=ASSEMBLY_SCALP-1_SAMEFIB_1093
  *Elset, elset=ASSEMBLY_SCALP-1_SAMEFIB_10930
  *Elset, elset=ASSEMBLY_SCALP-1_SAMEFIB_10931
  *Elset, elset=ASSEMBLY_SCALP-1_SAMEFIB_10932
  *Elset, elset=ASSEMBLY_SCALP-1_SAMEFIB_10933
  *Elset, elset=ASSEMBLY_SCALP-1_SAMEFIB_10934
  *Elset, elset=ASSEMBLY_SCALP-1_SAMEFIB_10935
  *Elset, elset=ASSEMBLY_SCALP-1_SAMEFIB_10936
  *Elset, elset=ASSEMBLY_SCALP-1_SAMEFIB_10937
  *Elset, elset=ASSEMBLY_SCALP-1_SAMEFIB_10938
  *Elset, elset=ASSEMBLY_SCALP-1_SAMEFIB_10939
  *Elset, elset=ASSEMBLY_SCALP-1_SAMEFIB_1094
  *Elset, elset=ASSEMBLY_SCALP-1_SAMEFIB_10940
  *Elset, elset=ASSEMBLY_SCALP-1_SAMEFIB_10941
  *Elset, elset=ASSEMBLY_SCALP-1_SAMEFIB_10942
  *Elset, elset=ASSEMBLY_SCALP-1_SAMEFIB_10943
  *Elset, elset=ASSEMBLY_SCALP-1_SAMEFIB_10944
  *Elset, elset=ASSEMBLY_SCALP-1_SAMEFIB_10945
  *Elset, elset=ASSEMBLY_SCALP-1_SAMEFIB_10946
  *Elset, elset=ASSEMBLY_SCALP-1_SAMEFIB_10947
  *Elset, elset=ASSEMBLY_SCALP-1_SAMEFIB_10948
  *Elset, elset=ASSEMBLY_SCALP-1_SAMEFIB_10949
  *Elset, elset=ASSEMBLY_SCALP-1_SAMEFIB_1095
  *Elset, elset=ASSEMBLY_SCALP-1_SAMEFIB_10950
  *Elset, elset=ASSEMBLY_SCALP-1_SAMEFIB_10951
  *Elset, elset=ASSEMBLY_SCALP-1_SAMEFIB_10952
  *Elset, elset=ASSEMBLY_SCALP-1_SAMEFIB_10953
  *Elset, elset=ASSEMBLY_SCALP-1_SAMEFIB_10954
  *Elset, elset=ASSEMBLY_SCALP-1_SAMEFIB_10955
  *Elset, elset=ASSEMBLY_SCALP-1_SAMEFIB_10956
  *Elset, elset=ASSEMBLY_SCALP-1_SAMEFIB_10957
  *Elset, elset=ASSEMBLY_SCALP-1_SAMEFIB_10958
  *Elset, elset=ASSEMBLY_SCALP-1_SAMEFIB_10959
  *Elset, elset=ASSEMBLY_SCALP-1_SAMEFIB_1096
  *Elset, elset=ASSEMBLY_SCALP-1_SAMEFIB_10960
  *Elset, elset=ASSEMBLY_SCALP-1_SAMEFIB_10961
  *Elset, elset=ASSEMBLY_SCALP-1_SAMEFIB_10962
  *Elset, elset=ASSEMBLY_SCALP-1_SAMEFIB_10963
  *Elset, elset=ASSEMBLY_SCALP-1_SAMEFIB_10964
  *Elset, elset=ASSEMBLY_SCALP-1_SAMEFIB_10965
  *Elset, elset=ASSEMBLY_SCALP-1_SAMEFIB_10966
  *Elset, elset=ASSEMBLY_SCALP-1_SAMEFIB_10967
  *Elset, elset=ASSEMBLY_SCALP-1_SAMEFIB_10968
  *Elset, elset=ASSEMBLY_SCALP-1_SAMEFIB_10969
  *Elset, elset=ASSEMBLY_SCALP-1_SAMEFIB_1097
  *Elset, elset=ASSEMBLY_SCALP-1_SAMEFIB_10970
  *Elset, elset=ASSEMBLY_SCALP-1_SAMEFIB_10971
  *Elset, elset=ASSEMBLY_SCALP-1_SAMEFIB_10972
  *Elset, elset=ASSEMBLY_SCALP-1_SAMEFIB_10973
  *Elset, elset=ASSEMBLY_SCALP-1_SAMEFIB_10974
  *Elset, elset=ASSEMBLY_SCALP-1_SAMEFIB_10975
  *Elset, elset=ASSEMBLY_SCALP-1_SAMEFIB_10976
  *Elset, elset=ASSEMBLY_SCALP-1_SAMEFIB_10977
  *Elset, elset=ASSEMBLY_SCALP-1_SAMEFIB_10978
  *Elset, elset=ASSEMBLY_SCALP-1_SAMEFIB_10979
  *Elset, elset=ASSEMBLY_SCALP-1_SAMEFIB_1098
  *Elset, elset=ASSEMBLY_SCALP-1_SAMEFIB_10980
  *Elset, elset=ASSEMBLY_SCALP-1_SAMEFIB_10981
  *Elset, elset=ASSEMBLY_SCALP-1_SAMEFIB_10982
  *Elset, elset=ASSEMBLY_SCALP-1_SAMEFIB_10983
  *Elset, elset=ASSEMBLY_SCALP-1_SAMEFIB_10984
  *Elset, elset=ASSEMBLY_SCALP-1_SAMEFIB_10985
  *Elset, elset=ASSEMBLY_SCALP-1_SAMEFIB_10986
  *Elset, elset=ASSEMBLY_SCALP-1_SAMEFIB_10987
  *Elset, elset=ASSEMBLY_SCALP-1_SAMEFIB_10988
  *Elset, elset=ASSEMBLY_SCALP-1_SAMEFIB_10989
  *Elset, elset=ASSEMBLY_SCALP-1_SAMEFIB_1099
  *Elset, elset=ASSEMBLY_SCALP-1_SAMEFIB_10990
  *Elset, elset=ASSEMBLY_SCALP-1_SAMEFIB_10991
  *Elset, elset=ASSEMBLY_SCALP-1_SAMEFIB_10992
  *Elset, elset=ASSEMBLY_SCALP-1_SAMEFIB_10993
  *Elset, elset=ASSEMBLY_SCALP-1_SAMEFIB_10994
  *Elset, elset=ASSEMBLY_SCALP-1_SAMEFIB_10995
  *Elset, elset=ASSEMBLY_SCALP-1_SAMEFIB_10996
  *Elset, elset=ASSEMBLY_SCALP-1_SAMEFIB_10997
  *Elset, elset=ASSEMBLY_SCALP-1_SAMEFIB_10998
  *Elset, elset=ASSEMBLY_SCALP-1_SAMEFIB_10999
  *Elset, elset=ASSEMBLY_SCALP-1_SAMEFIB_11
  *Elset, elset=ASSEMBLY_SCALP-1_SAMEFIB_110
  *Elset, elset=ASSEMBLY_SCALP-1_SAMEFIB_1100
  *Elset, elset=ASSEMBLY_SCALP-1_SAMEFIB_11000
  *Elset, elset=ASSEMBLY_SCALP-1_SAMEFIB_11001
  *Elset, elset=ASSEMBLY_SCALP-1_SAMEFIB_11002
  *Elset, elset=ASSEMBLY_SCALP-1_SAMEFIB_11003
  *Elset, elset=ASSEMBLY_SCALP-1_SAMEFIB_11004
  *Elset, elset=ASSEMBLY_SCALP-1_SAMEFIB_11005
  *Elset, elset=ASSEMBLY_SCALP-1_SAMEFIB_11006
  *Elset, elset=ASSEMBLY_SCALP-1_SAMEFIB_11007
  *Elset, elset=ASSEMBLY_SCALP-1_SAMEFIB_11008
  *Elset, elset=ASSEMBLY_SCALP-1_SAMEFIB_11009
  *Elset, elset=ASSEMBLY_SCALP-1_SAMEFIB_1101
  *Elset, elset=ASSEMBLY_SCALP-1_SAMEFIB_11010
  *Elset, elset=ASSEMBLY_SCALP-1_SAMEFIB_11011
  *Elset, elset=ASSEMBLY_SCALP-1_SAMEFIB_11012
  *Elset, elset=ASSEMBLY_SCALP-1_SAMEFIB_11013
  *Elset, elset=ASSEMBLY_SCALP-1_SAMEFIB_11014
  *Elset, elset=ASSEMBLY_SCALP-1_SAMEFIB_11015
  *Elset, elset=ASSEMBLY_SCALP-1_SAMEFIB_11016
  *Elset, elset=ASSEMBLY_SCALP-1_SAMEFIB_11017
  *Elset, elset=ASSEMBLY_SCALP-1_SAMEFIB_11018
  *Elset, elset=ASSEMBLY_SCALP-1_SAMEFIB_11019
  *Elset, elset=ASSEMBLY_SCALP-1_SAMEFIB_1102
  *Elset, elset=ASSEMBLY_SCALP-1_SAMEFIB_11020
  *Elset, elset=ASSEMBLY_SCALP-1_SAMEFIB_11021
  *Elset, elset=ASSEMBLY_SCALP-1_SAMEFIB_11022
  *Elset, elset=ASSEMBLY_SCALP-1_SAMEFIB_11023
  *Elset, elset=ASSEMBLY_SCALP-1_SAMEFIB_11024
  *Elset, elset=ASSEMBLY_SCALP-1_SAMEFIB_11025
  *Elset, elset=ASSEMBLY_SCALP-1_SAMEFIB_11026
  *Elset, elset=ASSEMBLY_SCALP-1_SAMEFIB_11027
  *Elset, elset=ASSEMBLY_SCALP-1_SAMEFIB_11028
  *Elset, elset=ASSEMBLY_SCALP-1_SAMEFIB_11029
  *Elset, elset=ASSEMBLY_SCALP-1_SAMEFIB_1103
  *Elset, elset=ASSEMBLY_SCALP-1_SAMEFIB_11030
  *Elset, elset=ASSEMBLY_SCALP-1_SAMEFIB_11031
  *Elset, elset=ASSEMBLY_SCALP-1_SAMEFIB_11032
  *Elset, elset=ASSEMBLY_SCALP-1_SAMEFIB_11033
  *Elset, elset=ASSEMBLY_SCALP-1_SAMEFIB_11034
  *Elset, elset=ASSEMBLY_SCALP-1_SAMEFIB_11035
  *Elset, elset=ASSEMBLY_SCALP-1_SAMEFIB_11036
  *Elset, elset=ASSEMBLY_SCALP-1_SAMEFIB_11037
  *Elset, elset=ASSEMBLY_SCALP-1_SAMEFIB_11038
  *Elset, elset=ASSEMBLY_SCALP-1_SAMEFIB_11039
  *Elset, elset=ASSEMBLY_SCALP-1_SAMEFIB_1104
  *Elset, elset=ASSEMBLY_SCALP-1_SAMEFIB_11040
  *Elset, elset=ASSEMBLY_SCALP-1_SAMEFIB_11041
  *Elset, elset=ASSEMBLY_SCALP-1_SAMEFIB_11042
  *Elset, elset=ASSEMBLY_SCALP-1_SAMEFIB_11043
  *Elset, elset=ASSEMBLY_SCALP-1_SAMEFIB_11044
  *Elset, elset=ASSEMBLY_SCALP-1_SAMEFIB_11045
  *Elset, elset=ASSEMBLY_SCALP-1_SAMEFIB_11046
  *Elset, elset=ASSEMBLY_SCALP-1_SAMEFIB_11047
  *Elset, elset=ASSEMBLY_SCALP-1_SAMEFIB_11048
  *Elset, elset=ASSEMBLY_SCALP-1_SAMEFIB_11049
  *Elset, elset=ASSEMBLY_SCALP-1_SAMEFIB_1105
  *Elset, elset=ASSEMBLY_SCALP-1_SAMEFIB_11050
  *Elset, elset=ASSEMBLY_SCALP-1_SAMEFIB_11051
  *Elset, elset=ASSEMBLY_SCALP-1_SAMEFIB_11052
  *Elset, elset=ASSEMBLY_SCALP-1_SAMEFIB_11053
  *Elset, elset=ASSEMBLY_SCALP-1_SAMEFIB_11054
  *Elset, elset=ASSEMBLY_SCALP-1_SAMEFIB_11055
  *Elset, elset=ASSEMBLY_SCALP-1_SAMEFIB_11056
  *Elset, elset=ASSEMBLY_SCALP-1_SAMEFIB_11057
  *Elset, elset=ASSEMBLY_SCALP-1_SAMEFIB_11058
  *Elset, elset=ASSEMBLY_SCALP-1_SAMEFIB_11059
  *Elset, elset=ASSEMBLY_SCALP-1_SAMEFIB_1106
  *Elset, elset=ASSEMBLY_SCALP-1_SAMEFIB_11060
  *Elset, elset=ASSEMBLY_SCALP-1_SAMEFIB_11061
  *Elset, elset=ASSEMBLY_SCALP-1_SAMEFIB_11062
  *Elset, elset=ASSEMBLY_SCALP-1_SAMEFIB_11063
  *Elset, elset=ASSEMBLY_SCALP-1_SAMEFIB_11064
  *Elset, elset=ASSEMBLY_SCALP-1_SAMEFIB_11065
  *Elset, elset=ASSEMBLY_SCALP-1_SAMEFIB_11066
  *Elset, elset=ASSEMBLY_SCALP-1_SAMEFIB_11067
  *Elset, elset=ASSEMBLY_SCALP-1_SAMEFIB_11068
  *Elset, elset=ASSEMBLY_SCALP-1_SAMEFIB_11069
  *Elset, elset=ASSEMBLY_SCALP-1_SAMEFIB_1107
  *Elset, elset=ASSEMBLY_SCALP-1_SAMEFIB_11070
  *Elset, elset=ASSEMBLY_SCALP-1_SAMEFIB_11071
  *Elset, elset=ASSEMBLY_SCALP-1_SAMEFIB_11072
  *Elset, elset=ASSEMBLY_SCALP-1_SAMEFIB_11073
  *Elset, elset=ASSEMBLY_SCALP-1_SAMEFIB_11074
  *Elset, elset=ASSEMBLY_SCALP-1_SAMEFIB_11075
  *Elset, elset=ASSEMBLY_SCALP-1_SAMEFIB_11076
  *Elset, elset=ASSEMBLY_SCALP-1_SAMEFIB_11077
  *Elset, elset=ASSEMBLY_SCALP-1_SAMEFIB_11078
  *Elset, elset=ASSEMBLY_SCALP-1_SAMEFIB_11079
  *Elset, elset=ASSEMBLY_SCALP-1_SAMEFIB_1108
  *Elset, elset=ASSEMBLY_SCALP-1_SAMEFIB_11080
  *Elset, elset=ASSEMBLY_SCALP-1_SAMEFIB_11081
  *Elset, elset=ASSEMBLY_SCALP-1_SAMEFIB_11082
  *Elset, elset=ASSEMBLY_SCALP-1_SAMEFIB_11083
  *Elset, elset=ASSEMBLY_SCALP-1_SAMEFIB_11084
  *Elset, elset=ASSEMBLY_SCALP-1_SAMEFIB_11085
  *Elset, elset=ASSEMBLY_SCALP-1_SAMEFIB_11086
  *Elset, elset=ASSEMBLY_SCALP-1_SAMEFIB_11087
  *Elset, elset=ASSEMBLY_SCALP-1_SAMEFIB_11088
  *Elset, elset=ASSEMBLY_SCALP-1_SAMEFIB_11089
  *Elset, elset=ASSEMBLY_SCALP-1_SAMEFIB_1109
  *Elset, elset=ASSEMBLY_SCALP-1_SAMEFIB_11090
  *Elset, elset=ASSEMBLY_SCALP-1_SAMEFIB_11091
  *Elset, elset=ASSEMBLY_SCALP-1_SAMEFIB_11092
  *Elset, elset=ASSEMBLY_SCALP-1_SAMEFIB_11093
  *Elset, elset=ASSEMBLY_SCALP-1_SAMEFIB_11094
  *Elset, elset=ASSEMBLY_SCALP-1_SAMEFIB_11095
  *Elset, elset=ASSEMBLY_SCALP-1_SAMEFIB_11096
  *Elset, elset=ASSEMBLY_SCALP-1_SAMEFIB_11097
  *Elset, elset=ASSEMBLY_SCALP-1_SAMEFIB_11098
  *Elset, elset=ASSEMBLY_SCALP-1_SAMEFIB_11099
  *Elset, elset=ASSEMBLY_SCALP-1_SAMEFIB_111
  *Elset, elset=ASSEMBLY_SCALP-1_SAMEFIB_1110
  *Elset, elset=ASSEMBLY_SCALP-1_SAMEFIB_11100
  *Elset, elset=ASSEMBLY_SCALP-1_SAMEFIB_11101
  *Elset, elset=ASSEMBLY_SCALP-1_SAMEFIB_11102
  *Elset, elset=ASSEMBLY_SCALP-1_SAMEFIB_11103
  *Elset, elset=ASSEMBLY_SCALP-1_SAMEFIB_11104
  *Elset, elset=ASSEMBLY_SCALP-1_SAMEFIB_11105
  *Elset, elset=ASSEMBLY_SCALP-1_SAMEFIB_11106
  *Elset, elset=ASSEMBLY_SCALP-1_SAMEFIB_11107
  *Elset, elset=ASSEMBLY_SCALP-1_SAMEFIB_11108
  *Elset, elset=ASSEMBLY_SCALP-1_SAMEFIB_11109
  *Elset, elset=ASSEMBLY_SCALP-1_SAMEFIB_1111
  *Elset, elset=ASSEMBLY_SCALP-1_SAMEFIB_11110
  *Elset, elset=ASSEMBLY_SCALP-1_SAMEFIB_11111
  *Elset, elset=ASSEMBLY_SCALP-1_SAMEFIB_11112
  *Elset, elset=ASSEMBLY_SCALP-1_SAMEFIB_11113
  *Elset, elset=ASSEMBLY_SCALP-1_SAMEFIB_11114
  *Elset, elset=ASSEMBLY_SCALP-1_SAMEFIB_11115
  *Elset, elset=ASSEMBLY_SCALP-1_SAMEFIB_11116
  *Elset, elset=ASSEMBLY_SCALP-1_SAMEFIB_11117
  *Elset, elset=ASSEMBLY_SCALP-1_SAMEFIB_11118
  *Elset, elset=ASSEMBLY_SCALP-1_SAMEFIB_11119
  *Elset, elset=ASSEMBLY_SCALP-1_SAMEFIB_1112
  *Elset, elset=ASSEMBLY_SCALP-1_SAMEFIB_11120
  *Elset, elset=ASSEMBLY_SCALP-1_SAMEFIB_11121
  *Elset, elset=ASSEMBLY_SCALP-1_SAMEFIB_11122
  *Elset, elset=ASSEMBLY_SCALP-1_SAMEFIB_11123
  *Elset, elset=ASSEMBLY_SCALP-1_SAMEFIB_11124
  *Elset, elset=ASSEMBLY_SCALP-1_SAMEFIB_11125
  *Elset, elset=ASSEMBLY_SCALP-1_SAMEFIB_11126
  *Elset, elset=ASSEMBLY_SCALP-1_SAMEFIB_11127
  *Elset, elset=ASSEMBLY_SCALP-1_SAMEFIB_11128
  *Elset, elset=ASSEMBLY_SCALP-1_SAMEFIB_11129
  *Elset, elset=ASSEMBLY_SCALP-1_SAMEFIB_1113
  *Elset, elset=ASSEMBLY_SCALP-1_SAMEFIB_11130
  *Elset, elset=ASSEMBLY_SCALP-1_SAMEFIB_11131
  *Elset, elset=ASSEMBLY_SCALP-1_SAMEFIB_11132
  *Elset, elset=ASSEMBLY_SCALP-1_SAMEFIB_11133
  *Elset, elset=ASSEMBLY_SCALP-1_SAMEFIB_11134
  *Elset, elset=ASSEMBLY_SCALP-1_SAMEFIB_11135
  *Elset, elset=ASSEMBLY_SCALP-1_SAMEFIB_11136
  *Elset, elset=ASSEMBLY_SCALP-1_SAMEFIB_11137
  *Elset, elset=ASSEMBLY_SCALP-1_SAMEFIB_11138
  *Elset, elset=ASSEMBLY_SCALP-1_SAMEFIB_11139
  *Elset, elset=ASSEMBLY_SCALP-1_SAMEFIB_1114
  *Elset, elset=ASSEMBLY_SCALP-1_SAMEFIB_11140
  *Elset, elset=ASSEMBLY_SCALP-1_SAMEFIB_11141
  *Elset, elset=ASSEMBLY_SCALP-1_SAMEFIB_11142
  *Elset, elset=ASSEMBLY_SCALP-1_SAMEFIB_11143
  *Elset, elset=ASSEMBLY_SCALP-1_SAMEFIB_11144
  *Elset, elset=ASSEMBLY_SCALP-1_SAMEFIB_11145
  *Elset, elset=ASSEMBLY_SCALP-1_SAMEFIB_11146
  *Elset, elset=ASSEMBLY_SCALP-1_SAMEFIB_11147
  *Elset, elset=ASSEMBLY_SCALP-1_SAMEFIB_11148
  *Elset, elset=ASSEMBLY_SCALP-1_SAMEFIB_11149
  *Elset, elset=ASSEMBLY_SCALP-1_SAMEFIB_1115
  *Elset, elset=ASSEMBLY_SCALP-1_SAMEFIB_11150
  *Elset, elset=ASSEMBLY_SCALP-1_SAMEFIB_11151
  *Elset, elset=ASSEMBLY_SCALP-1_SAMEFIB_11152
  *Elset, elset=ASSEMBLY_SCALP-1_SAMEFIB_11153
  *Elset, elset=ASSEMBLY_SCALP-1_SAMEFIB_11154
  *Elset, elset=ASSEMBLY_SCALP-1_SAMEFIB_11155
  *Elset, elset=ASSEMBLY_SCALP-1_SAMEFIB_11156
  *Elset, elset=ASSEMBLY_SCALP-1_SAMEFIB_11157
  *Elset, elset=ASSEMBLY_SCALP-1_SAMEFIB_11158
  *Elset, elset=ASSEMBLY_SCALP-1_SAMEFIB_11159
  *Elset, elset=ASSEMBLY_SCALP-1_SAMEFIB_1116
  *Elset, elset=ASSEMBLY_SCALP-1_SAMEFIB_11160
  *Elset, elset=ASSEMBLY_SCALP-1_SAMEFIB_11161
  *Elset, elset=ASSEMBLY_SCALP-1_SAMEFIB_11162
  *Elset, elset=ASSEMBLY_SCALP-1_SAMEFIB_11163
  *Elset, elset=ASSEMBLY_SCALP-1_SAMEFIB_11164
  *Elset, elset=ASSEMBLY_SCALP-1_SAMEFIB_11165
  *Elset, elset=ASSEMBLY_SCALP-1_SAMEFIB_11166
  *Elset, elset=ASSEMBLY_SCALP-1_SAMEFIB_11167
  *Elset, elset=ASSEMBLY_SCALP-1_SAMEFIB_11168
  *Elset, elset=ASSEMBLY_SCALP-1_SAMEFIB_11169
  *Elset, elset=ASSEMBLY_SCALP-1_SAMEFIB_1117
  *Elset, elset=ASSEMBLY_SCALP-1_SAMEFIB_11170
  *Elset, elset=ASSEMBLY_SCALP-1_SAMEFIB_11171
  *Elset, elset=ASSEMBLY_SCALP-1_SAMEFIB_11172
  *Elset, elset=ASSEMBLY_SCALP-1_SAMEFIB_11173
  *Elset, elset=ASSEMBLY_SCALP-1_SAMEFIB_11174
  *Elset, elset=ASSEMBLY_SCALP-1_SAMEFIB_11175
  *Elset, elset=ASSEMBLY_SCALP-1_SAMEFIB_11176
  *Elset, elset=ASSEMBLY_SCALP-1_SAMEFIB_11177
  *Elset, elset=ASSEMBLY_SCALP-1_SAMEFIB_11178
  *Elset, elset=ASSEMBLY_SCALP-1_SAMEFIB_11179
  *Elset, elset=ASSEMBLY_SCALP-1_SAMEFIB_1118
  *Elset, elset=ASSEMBLY_SCALP-1_SAMEFIB_11180
  *Elset, elset=ASSEMBLY_SCALP-1_SAMEFIB_11181
  *Elset, elset=ASSEMBLY_SCALP-1_SAMEFIB_11182
  *Elset, elset=ASSEMBLY_SCALP-1_SAMEFIB_11183
  *Elset, elset=ASSEMBLY_SCALP-1_SAMEFIB_11184
  *Elset, elset=ASSEMBLY_SCALP-1_SAMEFIB_11185
  *Elset, elset=ASSEMBLY_SCALP-1_SAMEFIB_11186
  *Elset, elset=ASSEMBLY_SCALP-1_SAMEFIB_11187
  *Elset, elset=ASSEMBLY_SCALP-1_SAMEFIB_11188
  *Elset, elset=ASSEMBLY_SCALP-1_SAMEFIB_11189
  *Elset, elset=ASSEMBLY_SCALP-1_SAMEFIB_1119
  *Elset, elset=ASSEMBLY_SCALP-1_SAMEFIB_11190
  *Elset, elset=ASSEMBLY_SCALP-1_SAMEFIB_11191
  *Elset, elset=ASSEMBLY_SCALP-1_SAMEFIB_11192
  *Elset, elset=ASSEMBLY_SCALP-1_SAMEFIB_11193
  *Elset, elset=ASSEMBLY_SCALP-1_SAMEFIB_11194
  *Elset, elset=ASSEMBLY_SCALP-1_SAMEFIB_11195
  *Elset, elset=ASSEMBLY_SCALP-1_SAMEFIB_11196
  *Elset, elset=ASSEMBLY_SCALP-1_SAMEFIB_11197
  *Elset, elset=ASSEMBLY_SCALP-1_SAMEFIB_11198
  *Elset, elset=ASSEMBLY_SCALP-1_SAMEFIB_11199
  *Elset, elset=ASSEMBLY_SCALP-1_SAMEFIB_112
  *Elset, elset=ASSEMBLY_SCALP-1_SAMEFIB_1120
  *Elset, elset=ASSEMBLY_SCALP-1_SAMEFIB_11200
  *Elset, elset=ASSEMBLY_SCALP-1_SAMEFIB_11201
  *Elset, elset=ASSEMBLY_SCALP-1_SAMEFIB_11202
  *Elset, elset=ASSEMBLY_SCALP-1_SAMEFIB_11203
  *Elset, elset=ASSEMBLY_SCALP-1_SAMEFIB_11204
  *Elset, elset=ASSEMBLY_SCALP-1_SAMEFIB_11205
  *Elset, elset=ASSEMBLY_SCALP-1_SAMEFIB_11206
  *Elset, elset=ASSEMBLY_SCALP-1_SAMEFIB_11207
  *Elset, elset=ASSEMBLY_SCALP-1_SAMEFIB_11208
  *Elset, elset=ASSEMBLY_SCALP-1_SAMEFIB_11209
  *Elset, elset=ASSEMBLY_SCALP-1_SAMEFIB_1121
  *Elset, elset=ASSEMBLY_SCALP-1_SAMEFIB_11210
  *Elset, elset=ASSEMBLY_SCALP-1_SAMEFIB_11211
  *Elset, elset=ASSEMBLY_SCALP-1_SAMEFIB_11212
  *Elset, elset=ASSEMBLY_SCALP-1_SAMEFIB_11213
  *Elset, elset=ASSEMBLY_SCALP-1_SAMEFIB_11214
  *Elset, elset=ASSEMBLY_SCALP-1_SAMEFIB_11215
  *Elset, elset=ASSEMBLY_SCALP-1_SAMEFIB_11216
  *Elset, elset=ASSEMBLY_SCALP-1_SAMEFIB_11217
  *Elset, elset=ASSEMBLY_SCALP-1_SAMEFIB_11218
  *Elset, elset=ASSEMBLY_SCALP-1_SAMEFIB_11219
  *Elset, elset=ASSEMBLY_SCALP-1_SAMEFIB_1122
  *Elset, elset=ASSEMBLY_SCALP-1_SAMEFIB_11220
  *Elset, elset=ASSEMBLY_SCALP-1_SAMEFIB_11221
  *Elset, elset=ASSEMBLY_SCALP-1_SAMEFIB_11222
  *Elset, elset=ASSEMBLY_SCALP-1_SAMEFIB_11223
  *Elset, elset=ASSEMBLY_SCALP-1_SAMEFIB_11224
  *Elset, elset=ASSEMBLY_SCALP-1_SAMEFIB_11225
  *Elset, elset=ASSEMBLY_SCALP-1_SAMEFIB_11226
  *Elset, elset=ASSEMBLY_SCALP-1_SAMEFIB_11227
  *Elset, elset=ASSEMBLY_SCALP-1_SAMEFIB_11228
  *Elset, elset=ASSEMBLY_SCALP-1_SAMEFIB_11229
  *Elset, elset=ASSEMBLY_SCALP-1_SAMEFIB_1123
  *Elset, elset=ASSEMBLY_SCALP-1_SAMEFIB_11230
  *Elset, elset=ASSEMBLY_SCALP-1_SAMEFIB_11231
  *Elset, elset=ASSEMBLY_SCALP-1_SAMEFIB_11232
  *Elset, elset=ASSEMBLY_SCALP-1_SAMEFIB_11233
  *Elset, elset=ASSEMBLY_SCALP-1_SAMEFIB_11234
  *Elset, elset=ASSEMBLY_SCALP-1_SAMEFIB_11235
  *Elset, elset=ASSEMBLY_SCALP-1_SAMEFIB_11236
  *Elset, elset=ASSEMBLY_SCALP-1_SAMEFIB_11237
  *Elset, elset=ASSEMBLY_SCALP-1_SAMEFIB_11238
  *Elset, elset=ASSEMBLY_SCALP-1_SAMEFIB_11239
  *Elset, elset=ASSEMBLY_SCALP-1_SAMEFIB_1124
  *Elset, elset=ASSEMBLY_SCALP-1_SAMEFIB_11240
  *Elset, elset=ASSEMBLY_SCALP-1_SAMEFIB_11241
  *Elset, elset=ASSEMBLY_SCALP-1_SAMEFIB_11242
  *Elset, elset=ASSEMBLY_SCALP-1_SAMEFIB_11243
  *Elset, elset=ASSEMBLY_SCALP-1_SAMEFIB_11244
  *Elset, elset=ASSEMBLY_SCALP-1_SAMEFIB_11245
  *Elset, elset=ASSEMBLY_SCALP-1_SAMEFIB_11246
  *Elset, elset=ASSEMBLY_SCALP-1_SAMEFIB_11247
  *Elset, elset=ASSEMBLY_SCALP-1_SAMEFIB_11248
  *Elset, elset=ASSEMBLY_SCALP-1_SAMEFIB_11249
  *Elset, elset=ASSEMBLY_SCALP-1_SAMEFIB_1125
  *Elset, elset=ASSEMBLY_SCALP-1_SAMEFIB_11250
  *Elset, elset=ASSEMBLY_SCALP-1_SAMEFIB_11251
  *Elset, elset=ASSEMBLY_SCALP-1_SAMEFIB_11252
  *Elset, elset=ASSEMBLY_SCALP-1_SAMEFIB_11253
  *Elset, elset=ASSEMBLY_SCALP-1_SAMEFIB_11254
  *Elset, elset=ASSEMBLY_SCALP-1_SAMEFIB_11255
  *Elset, elset=ASSEMBLY_SCALP-1_SAMEFIB_11256
  *Elset, elset=ASSEMBLY_SCALP-1_SAMEFIB_11257
  *Elset, elset=ASSEMBLY_SCALP-1_SAMEFIB_11258
  *Elset, elset=ASSEMBLY_SCALP-1_SAMEFIB_11259
  *Elset, elset=ASSEMBLY_SCALP-1_SAMEFIB_1126
  *Elset, elset=ASSEMBLY_SCALP-1_SAMEFIB_11260
  *Elset, elset=ASSEMBLY_SCALP-1_SAMEFIB_11261
  *Elset, elset=ASSEMBLY_SCALP-1_SAMEFIB_11262
  *Elset, elset=ASSEMBLY_SCALP-1_SAMEFIB_11263
  *Elset, elset=ASSEMBLY_SCALP-1_SAMEFIB_11264
  *Elset, elset=ASSEMBLY_SCALP-1_SAMEFIB_11265
  *Elset, elset=ASSEMBLY_SCALP-1_SAMEFIB_11266
  *Elset, elset=ASSEMBLY_SCALP-1_SAMEFIB_11267
  *Elset, elset=ASSEMBLY_SCALP-1_SAMEFIB_11268
  *Elset, elset=ASSEMBLY_SCALP-1_SAMEFIB_11269
  *Elset, elset=ASSEMBLY_SCALP-1_SAMEFIB_1127
  *Elset, elset=ASSEMBLY_SCALP-1_SAMEFIB_11270
  *Elset, elset=ASSEMBLY_SCALP-1_SAMEFIB_11271
  *Elset, elset=ASSEMBLY_SCALP-1_SAMEFIB_11272
  *Elset, elset=ASSEMBLY_SCALP-1_SAMEFIB_11273
  *Elset, elset=ASSEMBLY_SCALP-1_SAMEFIB_11274
  *Elset, elset=ASSEMBLY_SCALP-1_SAMEFIB_11275
  *Elset, elset=ASSEMBLY_SCALP-1_SAMEFIB_11276
  *Elset, elset=ASSEMBLY_SCALP-1_SAMEFIB_11277
  *Elset, elset=ASSEMBLY_SCALP-1_SAMEFIB_11278
  *Elset, elset=ASSEMBLY_SCALP-1_SAMEFIB_11279
  *Elset, elset=ASSEMBLY_SCALP-1_SAMEFIB_1128
  *Elset, elset=ASSEMBLY_SCALP-1_SAMEFIB_11280
  *Elset, elset=ASSEMBLY_SCALP-1_SAMEFIB_11281
  *Elset, elset=ASSEMBLY_SCALP-1_SAMEFIB_11282
  *Elset, elset=ASSEMBLY_SCALP-1_SAMEFIB_11283
  *Elset, elset=ASSEMBLY_SCALP-1_SAMEFIB_11284
  *Elset, elset=ASSEMBLY_SCALP-1_SAMEFIB_11285
  *Elset, elset=ASSEMBLY_SCALP-1_SAMEFIB_11286
  *Elset, elset=ASSEMBLY_SCALP-1_SAMEFIB_11287
  *Elset, elset=ASSEMBLY_SCALP-1_SAMEFIB_11288
  *Elset, elset=ASSEMBLY_SCALP-1_SAMEFIB_11289
  *Elset, elset=ASSEMBLY_SCALP-1_SAMEFIB_1129
  *Elset, elset=ASSEMBLY_SCALP-1_SAMEFIB_11290
  *Elset, elset=ASSEMBLY_SCALP-1_SAMEFIB_11291
  *Elset, elset=ASSEMBLY_SCALP-1_SAMEFIB_11292
  *Elset, elset=ASSEMBLY_SCALP-1_SAMEFIB_11293
  *Elset, elset=ASSEMBLY_SCALP-1_SAMEFIB_11294
  *Elset, elset=ASSEMBLY_SCALP-1_SAMEFIB_11295
  *Elset, elset=ASSEMBLY_SCALP-1_SAMEFIB_11296
  *Elset, elset=ASSEMBLY_SCALP-1_SAMEFIB_11297
  *Elset, elset=ASSEMBLY_SCALP-1_SAMEFIB_11298
  *Elset, elset=ASSEMBLY_SCALP-1_SAMEFIB_11299
  *Elset, elset=ASSEMBLY_SCALP-1_SAMEFIB_113
  *Elset, elset=ASSEMBLY_SCALP-1_SAMEFIB_1130
  *Elset, elset=ASSEMBLY_SCALP-1_SAMEFIB_11300
  *Elset, elset=ASSEMBLY_SCALP-1_SAMEFIB_11301
  *Elset, elset=ASSEMBLY_SCALP-1_SAMEFIB_11302
  *Elset, elset=ASSEMBLY_SCALP-1_SAMEFIB_11303
  *Elset, elset=ASSEMBLY_SCALP-1_SAMEFIB_11304
  *Elset, elset=ASSEMBLY_SCALP-1_SAMEFIB_11305
  *Elset, elset=ASSEMBLY_SCALP-1_SAMEFIB_11306
  *Elset, elset=ASSEMBLY_SCALP-1_SAMEFIB_11307
  *Elset, elset=ASSEMBLY_SCALP-1_SAMEFIB_11308
  *Elset, elset=ASSEMBLY_SCALP-1_SAMEFIB_11309
  *Elset, elset=ASSEMBLY_SCALP-1_SAMEFIB_1131
  *Elset, elset=ASSEMBLY_SCALP-1_SAMEFIB_11310
  *Elset, elset=ASSEMBLY_SCALP-1_SAMEFIB_11311
  *Elset, elset=ASSEMBLY_SCALP-1_SAMEFIB_11312
  *Elset, elset=ASSEMBLY_SCALP-1_SAMEFIB_11313
  *Elset, elset=ASSEMBLY_SCALP-1_SAMEFIB_11314
  *Elset, elset=ASSEMBLY_SCALP-1_SAMEFIB_11315
  *Elset, elset=ASSEMBLY_SCALP-1_SAMEFIB_11316
  *Elset, elset=ASSEMBLY_SCALP-1_SAMEFIB_11317
  *Elset, elset=ASSEMBLY_SCALP-1_SAMEFIB_11318
  *Elset, elset=ASSEMBLY_SCALP-1_SAMEFIB_11319
  *Elset, elset=ASSEMBLY_SCALP-1_SAMEFIB_1132
  *Elset, elset=ASSEMBLY_SCALP-1_SAMEFIB_11320
  *Elset, elset=ASSEMBLY_SCALP-1_SAMEFIB_11321
  *Elset, elset=ASSEMBLY_SCALP-1_SAMEFIB_11322
  *Elset, elset=ASSEMBLY_SCALP-1_SAMEFIB_11323
  *Elset, elset=ASSEMBLY_SCALP-1_SAMEFIB_11324
  *Elset, elset=ASSEMBLY_SCALP-1_SAMEFIB_11325
  *Elset, elset=ASSEMBLY_SCALP-1_SAMEFIB_11326
  *Elset, elset=ASSEMBLY_SCALP-1_SAMEFIB_11327
  *Elset, elset=ASSEMBLY_SCALP-1_SAMEFIB_11328
  *Elset, elset=ASSEMBLY_SCALP-1_SAMEFIB_11329
  *Elset, elset=ASSEMBLY_SCALP-1_SAMEFIB_1133
  *Elset, elset=ASSEMBLY_SCALP-1_SAMEFIB_11330
  *Elset, elset=ASSEMBLY_SCALP-1_SAMEFIB_11331
  *Elset, elset=ASSEMBLY_SCALP-1_SAMEFIB_11332
  *Elset, elset=ASSEMBLY_SCALP-1_SAMEFIB_11333
  *Elset, elset=ASSEMBLY_SCALP-1_SAMEFIB_11334
  *Elset, elset=ASSEMBLY_SCALP-1_SAMEFIB_11335
  *Elset, elset=ASSEMBLY_SCALP-1_SAMEFIB_11336
  *Elset, elset=ASSEMBLY_SCALP-1_SAMEFIB_11337
  *Elset, elset=ASSEMBLY_SCALP-1_SAMEFIB_11338
  *Elset, elset=ASSEMBLY_SCALP-1_SAMEFIB_11339
  *Elset, elset=ASSEMBLY_SCALP-1_SAMEFIB_1134
  *Elset, elset=ASSEMBLY_SCALP-1_SAMEFIB_11340
  *Elset, elset=ASSEMBLY_SCALP-1_SAMEFIB_11341
  *Elset, elset=ASSEMBLY_SCALP-1_SAMEFIB_11342
  *Elset, elset=ASSEMBLY_SCALP-1_SAMEFIB_11343
  *Elset, elset=ASSEMBLY_SCALP-1_SAMEFIB_11344
  *Elset, elset=ASSEMBLY_SCALP-1_SAMEFIB_11345
  *Elset, elset=ASSEMBLY_SCALP-1_SAMEFIB_11346
  *Elset, elset=ASSEMBLY_SCALP-1_SAMEFIB_11347
  *Elset, elset=ASSEMBLY_SCALP-1_SAMEFIB_11348
  *Elset, elset=ASSEMBLY_SCALP-1_SAMEFIB_11349
  *Elset, elset=ASSEMBLY_SCALP-1_SAMEFIB_1135
  *Elset, elset=ASSEMBLY_SCALP-1_SAMEFIB_11350
  *Elset, elset=ASSEMBLY_SCALP-1_SAMEFIB_11351
  *Elset, elset=ASSEMBLY_SCALP-1_SAMEFIB_11352
  *Elset, elset=ASSEMBLY_SCALP-1_SAMEFIB_11353
  *Elset, elset=ASSEMBLY_SCALP-1_SAMEFIB_11354
  *Elset, elset=ASSEMBLY_SCALP-1_SAMEFIB_11355
  *Elset, elset=ASSEMBLY_SCALP-1_SAMEFIB_11356
  *Elset, elset=ASSEMBLY_SCALP-1_SAMEFIB_11357
  *Elset, elset=ASSEMBLY_SCALP-1_SAMEFIB_11358
  *Elset, elset=ASSEMBLY_SCALP-1_SAMEFIB_11359
  *Elset, elset=ASSEMBLY_SCALP-1_SAMEFIB_1136
  *Elset, elset=ASSEMBLY_SCALP-1_SAMEFIB_11360
  *Elset, elset=ASSEMBLY_SCALP-1_SAMEFIB_11361
  *Elset, elset=ASSEMBLY_SCALP-1_SAMEFIB_11362
  *Elset, elset=ASSEMBLY_SCALP-1_SAMEFIB_11363
  *Elset, elset=ASSEMBLY_SCALP-1_SAMEFIB_11364
  *Elset, elset=ASSEMBLY_SCALP-1_SAMEFIB_11365
  *Elset, elset=ASSEMBLY_SCALP-1_SAMEFIB_11366
  *Elset, elset=ASSEMBLY_SCALP-1_SAMEFIB_11367
  *Elset, elset=ASSEMBLY_SCALP-1_SAMEFIB_11368
  *Elset, elset=ASSEMBLY_SCALP-1_SAMEFIB_11369
  *Elset, elset=ASSEMBLY_SCALP-1_SAMEFIB_1137
  *Elset, elset=ASSEMBLY_SCALP-1_SAMEFIB_11370
  *Elset, elset=ASSEMBLY_SCALP-1_SAMEFIB_11371
  *Elset, elset=ASSEMBLY_SCALP-1_SAMEFIB_11372
  *Elset, elset=ASSEMBLY_SCALP-1_SAMEFIB_11373
  *Elset, elset=ASSEMBLY_SCALP-1_SAMEFIB_11374
  *Elset, elset=ASSEMBLY_SCALP-1_SAMEFIB_11375
  *Elset, elset=ASSEMBLY_SCALP-1_SAMEFIB_11376
  *Elset, elset=ASSEMBLY_SCALP-1_SAMEFIB_11377
  *Elset, elset=ASSEMBLY_SCALP-1_SAMEFIB_11378
  *Elset, elset=ASSEMBLY_SCALP-1_SAMEFIB_11379
  *Elset, elset=ASSEMBLY_SCALP-1_SAMEFIB_1138
  *Elset, elset=ASSEMBLY_SCALP-1_SAMEFIB_11380
  *Elset, elset=ASSEMBLY_SCALP-1_SAMEFIB_11381
  *Elset, elset=ASSEMBLY_SCALP-1_SAMEFIB_11382
  *Elset, elset=ASSEMBLY_SCALP-1_SAMEFIB_11383
  *Elset, elset=ASSEMBLY_SCALP-1_SAMEFIB_11384
  *Elset, elset=ASSEMBLY_SCALP-1_SAMEFIB_11385
  *Elset, elset=ASSEMBLY_SCALP-1_SAMEFIB_11386
  *Elset, elset=ASSEMBLY_SCALP-1_SAMEFIB_11387
  *Elset, elset=ASSEMBLY_SCALP-1_SAMEFIB_11388
  *Elset, elset=ASSEMBLY_SCALP-1_SAMEFIB_11389
  *Elset, elset=ASSEMBLY_SCALP-1_SAMEFIB_1139
  *Elset, elset=ASSEMBLY_SCALP-1_SAMEFIB_11390
  *Elset, elset=ASSEMBLY_SCALP-1_SAMEFIB_11391
  *Elset, elset=ASSEMBLY_SCALP-1_SAMEFIB_11392
  *Elset, elset=ASSEMBLY_SCALP-1_SAMEFIB_11393
  *Elset, elset=ASSEMBLY_SCALP-1_SAMEFIB_11394
  *Elset, elset=ASSEMBLY_SCALP-1_SAMEFIB_11395
  *Elset, elset=ASSEMBLY_SCALP-1_SAMEFIB_11396
  *Elset, elset=ASSEMBLY_SCALP-1_SAMEFIB_11397
  *Elset, elset=ASSEMBLY_SCALP-1_SAMEFIB_11398
  *Elset, elset=ASSEMBLY_SCALP-1_SAMEFIB_11399
  *Elset, elset=ASSEMBLY_SCALP-1_SAMEFIB_114
  *Elset, elset=ASSEMBLY_SCALP-1_SAMEFIB_1140
  *Elset, elset=ASSEMBLY_SCALP-1_SAMEFIB_11400
  *Elset, elset=ASSEMBLY_SCALP-1_SAMEFIB_11401
  *Elset, elset=ASSEMBLY_SCALP-1_SAMEFIB_11402
  *Elset, elset=ASSEMBLY_SCALP-1_SAMEFIB_11403
  *Elset, elset=ASSEMBLY_SCALP-1_SAMEFIB_11404
  *Elset, elset=ASSEMBLY_SCALP-1_SAMEFIB_11405
  *Elset, elset=ASSEMBLY_SCALP-1_SAMEFIB_11406
  *Elset, elset=ASSEMBLY_SCALP-1_SAMEFIB_11407
  *Elset, elset=ASSEMBLY_SCALP-1_SAMEFIB_11408
  *Elset, elset=ASSEMBLY_SCALP-1_SAMEFIB_11409
  *Elset, elset=ASSEMBLY_SCALP-1_SAMEFIB_1141
  *Elset, elset=ASSEMBLY_SCALP-1_SAMEFIB_11410
  *Elset, elset=ASSEMBLY_SCALP-1_SAMEFIB_11411
  *Elset, elset=ASSEMBLY_SCALP-1_SAMEFIB_11412
  *Elset, elset=ASSEMBLY_SCALP-1_SAMEFIB_11413
  *Elset, elset=ASSEMBLY_SCALP-1_SAMEFIB_11414
  *Elset, elset=ASSEMBLY_SCALP-1_SAMEFIB_11415
  *Elset, elset=ASSEMBLY_SCALP-1_SAMEFIB_11416
  *Elset, elset=ASSEMBLY_SCALP-1_SAMEFIB_11417
  *Elset, elset=ASSEMBLY_SCALP-1_SAMEFIB_11418
  *Elset, elset=ASSEMBLY_SCALP-1_SAMEFIB_11419
  *Elset, elset=ASSEMBLY_SCALP-1_SAMEFIB_1142
  *Elset, elset=ASSEMBLY_SCALP-1_SAMEFIB_11420
  *Elset, elset=ASSEMBLY_SCALP-1_SAMEFIB_11421
  *Elset, elset=ASSEMBLY_SCALP-1_SAMEFIB_11422
  *Elset, elset=ASSEMBLY_SCALP-1_SAMEFIB_11423
  *Elset, elset=ASSEMBLY_SCALP-1_SAMEFIB_11424
  *Elset, elset=ASSEMBLY_SCALP-1_SAMEFIB_11425
  *Elset, elset=ASSEMBLY_SCALP-1_SAMEFIB_11426
  *Elset, elset=ASSEMBLY_SCALP-1_SAMEFIB_11427
  *Elset, elset=ASSEMBLY_SCALP-1_SAMEFIB_11428
  *Elset, elset=ASSEMBLY_SCALP-1_SAMEFIB_11429
  *Elset, elset=ASSEMBLY_SCALP-1_SAMEFIB_1143
  *Elset, elset=ASSEMBLY_SCALP-1_SAMEFIB_11430
  *Elset, elset=ASSEMBLY_SCALP-1_SAMEFIB_11431
  *Elset, elset=ASSEMBLY_SCALP-1_SAMEFIB_11432
  *Elset, elset=ASSEMBLY_SCALP-1_SAMEFIB_11433
  *Elset, elset=ASSEMBLY_SCALP-1_SAMEFIB_11434
  *Elset, elset=ASSEMBLY_SCALP-1_SAMEFIB_11435
  *Elset, elset=ASSEMBLY_SCALP-1_SAMEFIB_11436
  *Elset, elset=ASSEMBLY_SCALP-1_SAMEFIB_11437
  *Elset, elset=ASSEMBLY_SCALP-1_SAMEFIB_11438
  *Elset, elset=ASSEMBLY_SCALP-1_SAMEFIB_11439
  *Elset, elset=ASSEMBLY_SCALP-1_SAMEFIB_1144
  *Elset, elset=ASSEMBLY_SCALP-1_SAMEFIB_11440
  *Elset, elset=ASSEMBLY_SCALP-1_SAMEFIB_11441
  *Elset, elset=ASSEMBLY_SCALP-1_SAMEFIB_11442
  *Elset, elset=ASSEMBLY_SCALP-1_SAMEFIB_11443
  *Elset, elset=ASSEMBLY_SCALP-1_SAMEFIB_11444
  *Elset, elset=ASSEMBLY_SCALP-1_SAMEFIB_11445
  *Elset, elset=ASSEMBLY_SCALP-1_SAMEFIB_11446
  *Elset, elset=ASSEMBLY_SCALP-1_SAMEFIB_11447
  *Elset, elset=ASSEMBLY_SCALP-1_SAMEFIB_11448
  *Elset, elset=ASSEMBLY_SCALP-1_SAMEFIB_11449
  *Elset, elset=ASSEMBLY_SCALP-1_SAMEFIB_1145
  *Elset, elset=ASSEMBLY_SCALP-1_SAMEFIB_11450
  *Elset, elset=ASSEMBLY_SCALP-1_SAMEFIB_11451
  *Elset, elset=ASSEMBLY_SCALP-1_SAMEFIB_11452
  *Elset, elset=ASSEMBLY_SCALP-1_SAMEFIB_11453
  *Elset, elset=ASSEMBLY_SCALP-1_SAMEFIB_11454
  *Elset, elset=ASSEMBLY_SCALP-1_SAMEFIB_11455
  *Elset, elset=ASSEMBLY_SCALP-1_SAMEFIB_11456
  *Elset, elset=ASSEMBLY_SCALP-1_SAMEFIB_11457
  *Elset, elset=ASSEMBLY_SCALP-1_SAMEFIB_11458
  *Elset, elset=ASSEMBLY_SCALP-1_SAMEFIB_11459
  *Elset, elset=ASSEMBLY_SCALP-1_SAMEFIB_1146
  *Elset, elset=ASSEMBLY_SCALP-1_SAMEFIB_11460
  *Elset, elset=ASSEMBLY_SCALP-1_SAMEFIB_11461
  *Elset, elset=ASSEMBLY_SCALP-1_SAMEFIB_11462
  *Elset, elset=ASSEMBLY_SCALP-1_SAMEFIB_11463
  *Elset, elset=ASSEMBLY_SCALP-1_SAMEFIB_11464
  *Elset, elset=ASSEMBLY_SCALP-1_SAMEFIB_11465
  *Elset, elset=ASSEMBLY_SCALP-1_SAMEFIB_11466
  *Elset, elset=ASSEMBLY_SCALP-1_SAMEFIB_11467
  *Elset, elset=ASSEMBLY_SCALP-1_SAMEFIB_11468
[...]
     SCALP-1.71099        0.0151176          12.3323          150.267       NO       
     SCALP-1.71100      1.81742E-05          2.06192          175.805       NO       
     SCALP-1.71101      2.33854E-05          4.21097          170.427       NO       
     SCALP-1.71102      0.000194147         0.299818          179.309       NO       
     SCALP-1.71103      7.56187E-07        0.0646241          179.905       NO       
     SCALP-1.71105      9.83986E-06          2.32979          175.933       NO       
     SCALP-1.71106      0.000159612         0.298131          178.841       NO       
     SCALP-1.71107       0.00204251           12.661          149.651       NO       
     SCALP-1.71108      7.02323E-06          1.25375          177.756       NO       
     SCALP-1.71109       8.9277E-07        0.0621657          179.909       NO       
     SCALP-1.71110      2.23404E-06          1.24027          177.813       NO       
     SCALP-1.71111      1.13083E-06          1.12744          178.047       NO       
     SCALP-1.71112      1.09307E-06          1.11727          178.049       NO       
     SCALP-1.71115      2.23404E-06          1.24027          177.813       NO       
     SCALP-1.71116      0.000504988           1.4512           177.71       NO       
     SCALP-1.71117      0.000146026          1.59597          176.338       NO       
     SCALP-1.71118      0.000117684          1.59118          176.336       NO       
     SCALP-1.71119      1.51819E-06          1.12676          178.266       NO       
     SCALP-1.71120      1.51819E-06          1.12676          178.266       NO       
     SCALP-1.71121      0.000492152          1.75969          175.657       NO       
     SCALP-1.71122      1.09826E-07         0.165884          179.671       NO       
     SCALP-1.71123      4.35282E-05          1.18481          177.941       NO       
     SCALP-1.71124       0.00066387          2.38938          175.142       NO       
     SCALP-1.71125       0.00246439          1.46409          177.084       NO       
     SCALP-1.71126      1.74454E-05          2.27571          176.644       NO       
     SCALP-1.71127      0.000753523         0.503422           178.98       NO       
     SCALP-1.71128      0.000899837          2.29451          175.609       NO       
     SCALP-1.71129        0.0010463          2.30325          175.641       NO       
     SCALP-1.71130        0.0010463          2.30325          175.641       NO       
     SCALP-1.71131      3.07061E-05          1.38272          177.525       NO       
     SCALP-1.71132      0.000492152          1.75969          175.657       NO       
     SCALP-1.71133       0.00422536          2.25034          175.442       NO       
     SCALP-1.71134      4.75579E-05        0.0819729          179.819       NO       
     SCALP-1.71135        0.0190748          19.9333          151.918       NO       
     SCALP-1.71136      0.000443905          1.79879          175.715       NO       
     SCALP-1.71137      0.000443905          1.79879          175.715       NO       
     SCALP-1.71138      2.85041E-05         0.183395          179.734       NO       
     SCALP-1.71139       0.00349017          42.3064          153.533       NO       
     SCALP-1.71140       0.00430232          18.1468          158.363       NO       
     SCALP-1.71141        1.495E-05          3.22607          176.331       NO       
     SCALP-1.71142        0.0145454          17.6435          154.197       NO       
     SCALP-1.71143        0.0169696          21.8474          150.987       NO       
     SCALP-1.71144      2.81935E-05          21.2075           172.45       NO       
     SCALP-1.71145      0.000521967          6.40976          168.295       NO       
     SCALP-1.71146        0.0130469          16.7866          141.963       NO       
     SCALP-1.71147      9.48345E-06        0.0808693          179.834       NO       
     SCALP-1.71148      5.02211E-05          3.69238          173.051       NO       
     SCALP-1.71149      2.87784E-05         0.226918           179.61       NO       
     SCALP-1.71150      2.85428E-09        0.0836371          179.863       NO       
     SCALP-1.71151      2.84052E-05          3.83816          157.926       NO       
     SCALP-1.71152      2.38063E-05         0.605548          179.014       NO       
     SCALP-1.71153      1.02497E-05          2.29687          176.082       NO       
     SCALP-1.71154      5.97563E-05         0.206975          179.643       NO       
     SCALP-1.71155      9.97654E-05          8.81121          171.156       NO       
     SCALP-1.71156      1.24588E-06          1.98203          175.903       NO       
     SCALP-1.71157      4.69456E-06          1.05359          177.368       NO       
     SCALP-1.71158       0.00365159          11.9399          112.266       NO       
     SCALP-1.71159      3.19034E-05          1.95021           176.02       NO       
     SCALP-1.71160        0.0191479          20.2089           151.82       NO       
     SCALP-1.71162      1.11222E-05          2.68476          176.712       NO       
     SCALP-1.71163       0.00745444          12.9522          160.601       NO       
     SCALP-1.71176         0.019286          12.4043          155.381       NO       
     SCALP-1.71213        0.0151569          22.3025          152.866       NO       
     SCALP-1.71223      1.65358E-05          1.89024          175.552       NO       
     SCALP-1.71495        0.0173731          8.64648           134.51       NO       
     SCALP-1.71496        0.0059507          3.23347          165.808       NO       
     SCALP-1.71568         0.108245          9.77427          132.463       NO       
     SCALP-1.71745       0.00737288           14.806          135.785       NO       
     SCALP-1.71746       0.00653494          35.8797          154.012       NO       
     SCALP-1.71882         0.121766           9.6578          123.909       NO       
     SCALP-1.72733        0.0910868          9.68582           134.39       NO       
     SCALP-1.73891        0.0581468          8.81362          138.581       NO       
     SCALP-1.74076        0.0133027          1.48124          177.516       NO       
     SCALP-1.74090       0.00351203          11.7599          116.654       NO       
     SCALP-1.74091       0.00358428          14.7413          136.918       NO       
     SCALP-1.74092       0.00732574          14.3919          146.931       NO       
     SCALP-1.74093       0.00576127          11.2986          118.313       NO       
     SCALP-1.74155       0.00710178          11.9077          128.411       NO       
     SCALP-1.74179        0.0159435          18.7775          153.448       NO       
     SCALP-1.74182       0.00937614          18.4945          154.977       NO       
     SCALP-1.74507        0.0160248          18.6409          153.209       NO       
     SCALP-1.74523       0.00465396          18.6286          158.188       NO       
     SCALP-1.74526       0.00939391          18.8535          155.005       NO       
     SCALP-1.74537        0.0190005          19.6605          152.014       NO       
     SCALP-1.74547       0.00864029           2.3683          175.185       NO       
     SCALP-1.74725      0.000132101         0.455113          177.626       NO       
     SCALP-1.74728        0.0195219            10.96          159.388       NO       
     SCALP-1.74852      7.45543E-05          1.53393          173.678       NO       
     SCALP-1.74875       0.00609374           25.211          154.632       NO       
     SCALP-1.74896       0.00124958         0.960997          175.924       NO       
     SCALP-1.74954      9.37133E-05          3.82792          171.517       NO       
     SCALP-1.75143       0.00839493          15.3566          150.013       NO       
     SCALP-1.75144        0.0070048          26.7636           153.61       NO       
     SCALP-1.75261      8.59209E-05          4.09773          175.412       NO       
  
  
  *Step, name=Step-1, nlgeom=YES, inc=10000
  *output, field, variable=PRESELECT
  *output, history, variable=PRESELECT
  *Step, name=Step-2, nlgeom=YES, inc=10000
  *output, field, variable=PRESELECT
  *output, history, variable=PRESELECT
  *Step, name=Step-1, nlgeom=YES, inc=10000
  *Step, name=Step-2, nlgeom=YES, inc=10000
  *Step, name=Step-1, nlgeom=YES, inc=10000
  *static
  *connectormotion
  *connectormotion
  *connectormotion
  *connectormotion
  *connectormotion
  *connectormotion
  *connectormotion
  *connectormotion
  *connectormotion
  *connectormotion
  *connectormotion
  *connectormotion
  *connectormotion
  *connectormotion
  *connectormotion
  *connectormotion
  *connectormotion
  *connectormotion
  *connectormotion
  *output, field, variable=PRESELECT
  *output, history, variable=PRESELECT
  *endstep
  *Step, name=Step-2, nlgeom=YES, inc=10000
  *static
  *connectormotion
  *connectormotion
  *connectormotion
  *connectormotion
  *connectormotion
  *connectormotion
  *connectormotion
  *connectormotion
  *connectormotion
  *connectormotion
  *connectormotion
  *connectormotion
  *connectormotion
  *connectormotion
  *connectormotion
  *output, field, variable=PRESELECT
  *output, history, variable=PRESELECT
  *endstep
  *boundary
  *boundary
  *Step, name=Step-1, nlgeom=YES, inc=10000
  *static
  *endstep

 ***WARNING: OVERCONSTRAINT CHECKS: THERE ARE 56662 BOUNDARY CONDITIONS 
             SPECIFIED IN THIS MODEL. OVERCONSTRAINT CHECKS FOR BOUNDARY 
             CONDITIONS SPECIFIED ON SLAVE NODES OF RIGID BODIES, OF *TIE 
             OPTIONS, OR OF *COUPLING OPTIONS REQUIRE 21 MB OF MEMORY. IF THIS 
             IS A PROBLEM, PLEASE TURN OFF OVERCONSTRAINT CHECKS USING 
             *CONSTRAINT CONTROLS, NO CHECKS or INCREASE THE MEMORY USED BY THE 
             PRE-PROCESSOR.
  *Step, name=Step-2, nlgeom=YES, inc=10000
  *static
  *endstep

 ***WARNING: OVERCONSTRAINT CHECKS: THERE ARE 56662 BOUNDARY CONDITIONS 
             SPECIFIED IN THIS MODEL. OVERCONSTRAINT CHECKS FOR BOUNDARY 
             CONDITIONS SPECIFIED ON SLAVE NODES OF RIGID BODIES, OF *TIE 
             OPTIONS, OR OF *COUPLING OPTIONS REQUIRE 21 MB OF MEMORY. IF THIS 
             IS A PROBLEM, PLEASE TURN OFF OVERCONSTRAINT CHECKS USING 
             *CONSTRAINT CONTROLS, NO CHECKS or INCREASE THE MEMORY USED BY THE 
             PRE-PROCESSOR.



                            P R O B L E M   S I Z E


          NUMBER OF ELEMENTS IS                                110428
          NUMBER OF ELEMENTS DEFINED BY THE USER AND *TIE       85043
          NUMBER OF INTERNAL ELEMENTS GENERATED FOR CONTACT     25384
          NUMBER OF NODES IS                                   106583
          NUMBER OF NODES DEFINED BY THE USER                   30257
          NUMBER OF INTERNAL NODES GENERATED BY THE PROGRAM     76326
          TOTAL NUMBER OF VARIABLES IN THE MODEL               192361
          (DEGREES OF FREEDOM PLUS MAX NO. OF ANY LAGRANGE MULTIPLIER
           VARIABLES. INCLUDE *PRINT,SOLVE=YES TO GET THE ACTUAL NUMBER.)



                              END OF USER INPUT PROCESSING



     JOB TIME SUMMARY
       USER TIME (SEC)      =   10.690    
       SYSTEM TIME (SEC)    =   1.4600    
       TOTAL CPU TIME (SEC) =   12.150    
       WALLCLOCK TIME (SEC) =         14
1

   Abaqus 2020                                  Date 22-Jan-2022   Time 09:45:03
   For use by PURDUE UNIVERSITY under license from Dassault Systemes or its subsidiary.

                                                                                               STEP    1  INCREMENT    1
                                                                                          TIME COMPLETED IN THIS STEP   0.00    


                        S T E P       1     S T A T I C   A N A L Y S I S


                                                                                          

     AUTOMATIC TIME CONTROL WITH -
          A SUGGESTED INITIAL TIME INCREMENT OF                0.100    
          AND A TOTAL TIME PERIOD OF                            1.00    
          THE MINIMUM TIME INCREMENT ALLOWED IS                1.000E-07
          THE MAXIMUM TIME INCREMENT ALLOWED IS                0.100    

     LINEAR EQUATION SOLVER TYPE         DIRECT SPARSE

          LARGE DISPLACEMENT THEORY WILL BE USED
  
                   M E M O R Y   E S T I M A T E
  
 PROCESS      FLOATING PT       MINIMUM MEMORY        MEMORY TO
              OPERATIONS           REQUIRED          MINIMIZE I/O
             PER ITERATION           (MB)               (MB)
  
     1          9.66E+09              131                473
  
 NOTE:
      (1) SINCE ABAQUS DOES NOT PRE-ALLOCATE MEMORY AND ONLY ALLOCATES MEMORY AS NEEDED DURING THE ANALYSIS,
          THE MEMORY REQUIREMENT PRINTED HERE CAN ONLY BE VIEWED AS A GENERAL GUIDELINE BASED ON THE BEST
          KNOWLEDGE AVAILABLE AT THE BEGINNING OF A STEP BEFORE THE SOLUTION PROCESS HAS BEGUN.
      (2) THE ESTIMATE IS NORMALLY UPDATED AT THE BEGINNING OF EVERY STEP. IT IS THE MAXIMUM VALUE OF THE
          ESTIMATE FROM THE CURRENT STEP TO THE LAST STEP OF THE ANALYSIS, WITH UNSYMMETRIC SOLUTION TAKEN
          INTO ACCOUNT IF APPLICABLE. 
      (3) SINCE THE ESTIMATE IS BASED ON THE ACTIVE DEGREES OF FREEDOM IN THE FIRST ITERATION OF THE 
          CURRENT STEP, THE MEMORY ESTIMATE MIGHT BE SIGNIFICANTLY DIFFERENT THAN ACTUAL USAGE FOR 
          PROBLEMS WITH SUBSTANTIAL CHANGES IN ACTIVE DEGREES OF FREEDOM BETWEEN STEPS (OR EVEN WITHIN
          THE SAME STEP). EXAMPLES ARE: PROBLEMS WITH SIGNIFICANT CONTACT CHANGES, PROBLEMS WITH MODEL
          CHANGE, PROBLEMS WITH BOTH STATIC STEP AND STEADY STATE DYNAMIC PROCEDURES WHERE ACOUSTIC 
          ELEMENTS WILL ONLY BE ACTIVATED IN THE STEADY STATE DYNAMIC STEPS.
      (4) FOR MULTI-PROCESS EXECUTION, THE ESTIMATED VALUE OF FLOATING POINT OPERATIONS FOR EACH PROCESS
          IS BASED ON AN INITIAL SCHEDULING OF OPERATIONS AND MIGHT NOT REFLECT THE ACTUAL FLOATING 
          POINT OPERATIONS COMPLETED ON EACH PROCESS. OPERATIONS ARE DYNAMICALLY BALANCED DURING EXECUTION, 
          SO THE ACTUAL BALANCE OF OPERATIONS BETWEEN PROCESSES IS EXPECTED TO BE BETTER THAN THE ESTIMATE
          PRINTED HERE.
      (5) THE UPPER LIMIT OF MEMORY THAT CAN BE ALLOCATED BY ABAQUS WILL IN GENERAL DEPEND ON THE VALUE OF
          THE "MEMORY" PARAMETER AND THE AMOUNT OF PHYSICAL MEMORY AVAILABLE ON THE MACHINE. PLEASE SEE
          THE "ABAQUS ANALYSIS USER'S MANUAL" FOR MORE DETAILS. THE ACTUAL USAGE OF MEMORY AND OF DISK
          SPACE FOR SCRATCH DATA WILL DEPEND ON THIS UPPER LIMIT AS WELL AS THE MEMORY REQUIRED TO MINIMIZE
          I/O. IF THE MEMORY UPPER LIMIT IS GREATER THAN THE MEMORY REQUIRED TO MINIMIZE I/O, THEN THE ACTUAL
          MEMORY USAGE WILL BE CLOSE TO THE ESTIMATED "MEMORY TO MINIMIZE I/O" VALUE, AND THE SCRATCH DISK
          USAGE WILL BE CLOSE-TO-ZERO; OTHERWISE, THE ACTUAL MEMORY USED WILL BE CLOSE TO THE PREVIOUSLY
          MENTIONED MEMORY LIMIT, AND THE SCRATCH DISK USAGE WILL BE ROUGHLY PROPORTIONAL TO THE DIFFERENCE
          BETWEEN THE ESTIMATED "MEMORY TO MINIMIZE I/O" AND THE MEMORY UPPER LIMIT. HOWEVER ACCURATE
          ESTIMATE OF THE SCRATCH DISK SPACE IS NOT POSSIBLE.
      (6) USING "*RESTART, WRITE" CAN GENERATE A LARGE AMOUNT OF DATA WRITTEN IN THE WORK DIRECTORY.
1

   Abaqus 2020                                  Date 22-Jan-2022   Time 09:51:25
   For use by PURDUE UNIVERSITY under license from Dassault Systemes or its subsidiary.

                                                                                               STEP    2  INCREMENT    1
                                                                                          TIME COMPLETED IN THIS STEP   0.00    


                        S T E P       2     S T A T I C   A N A L Y S I S


                                                                                          

     AUTOMATIC TIME CONTROL WITH -
          A SUGGESTED INITIAL TIME INCREMENT OF                1.000E-02
          AND A TOTAL TIME PERIOD OF                            1.00    
          THE MINIMUM TIME INCREMENT ALLOWED IS                1.000E-07
          THE MAXIMUM TIME INCREMENT ALLOWED IS                1.000E-02

     LINEAR EQUATION SOLVER TYPE         DIRECT SPARSE

          LARGE DISPLACEMENT THEORY WILL BE USED
  
                   M E M O R Y   E S T I M A T E
  
 PROCESS      FLOATING PT       MINIMUM MEMORY        MEMORY TO
              OPERATIONS           REQUIRED          MINIMIZE I/O
             PER ITERATION           (MB)               (MB)
  
     1          1.07E+10              106                480
  
 NOTE:
      (1) SINCE ABAQUS DOES NOT PRE-ALLOCATE MEMORY AND ONLY ALLOCATES MEMORY AS NEEDED DURING THE ANALYSIS,
          THE MEMORY REQUIREMENT PRINTED HERE CAN ONLY BE VIEWED AS A GENERAL GUIDELINE BASED ON THE BEST
          KNOWLEDGE AVAILABLE AT THE BEGINNING OF A STEP BEFORE THE SOLUTION PROCESS HAS BEGUN.
      (2) THE ESTIMATE IS NORMALLY UPDATED AT THE BEGINNING OF EVERY STEP. IT IS THE MAXIMUM VALUE OF THE
          ESTIMATE FROM THE CURRENT STEP TO THE LAST STEP OF THE ANALYSIS, WITH UNSYMMETRIC SOLUTION TAKEN
          INTO ACCOUNT IF APPLICABLE. 
      (3) SINCE THE ESTIMATE IS BASED ON THE ACTIVE DEGREES OF FREEDOM IN THE FIRST ITERATION OF THE 
          CURRENT STEP, THE MEMORY ESTIMATE MIGHT BE SIGNIFICANTLY DIFFERENT THAN ACTUAL USAGE FOR 
          PROBLEMS WITH SUBSTANTIAL CHANGES IN ACTIVE DEGREES OF FREEDOM BETWEEN STEPS (OR EVEN WITHIN
          THE SAME STEP). EXAMPLES ARE: PROBLEMS WITH SIGNIFICANT CONTACT CHANGES, PROBLEMS WITH MODEL
          CHANGE, PROBLEMS WITH BOTH STATIC STEP AND STEADY STATE DYNAMIC PROCEDURES WHERE ACOUSTIC 
          ELEMENTS WILL ONLY BE ACTIVATED IN THE STEADY STATE DYNAMIC STEPS.
      (4) FOR MULTI-PROCESS EXECUTION, THE ESTIMATED VALUE OF FLOATING POINT OPERATIONS FOR EACH PROCESS
          IS BASED ON AN INITIAL SCHEDULING OF OPERATIONS AND MIGHT NOT REFLECT THE ACTUAL FLOATING 
          POINT OPERATIONS COMPLETED ON EACH PROCESS. OPERATIONS ARE DYNAMICALLY BALANCED DURING EXECUTION, 
          SO THE ACTUAL BALANCE OF OPERATIONS BETWEEN PROCESSES IS EXPECTED TO BE BETTER THAN THE ESTIMATE
          PRINTED HERE.
      (5) THE UPPER LIMIT OF MEMORY THAT CAN BE ALLOCATED BY ABAQUS WILL IN GENERAL DEPEND ON THE VALUE OF
          THE "MEMORY" PARAMETER AND THE AMOUNT OF PHYSICAL MEMORY AVAILABLE ON THE MACHINE. PLEASE SEE
          THE "ABAQUS ANALYSIS USER'S MANUAL" FOR MORE DETAILS. THE ACTUAL USAGE OF MEMORY AND OF DISK
          SPACE FOR SCRATCH DATA WILL DEPEND ON THIS UPPER LIMIT AS WELL AS THE MEMORY REQUIRED TO MINIMIZE
          I/O. IF THE MEMORY UPPER LIMIT IS GREATER THAN THE MEMORY REQUIRED TO MINIMIZE I/O, THEN THE ACTUAL
          MEMORY USAGE WILL BE CLOSE TO THE ESTIMATED "MEMORY TO MINIMIZE I/O" VALUE, AND THE SCRATCH DISK
          USAGE WILL BE CLOSE-TO-ZERO; OTHERWISE, THE ACTUAL MEMORY USED WILL BE CLOSE TO THE PREVIOUSLY
          MENTIONED MEMORY LIMIT, AND THE SCRATCH DISK USAGE WILL BE ROUGHLY PROPORTIONAL TO THE DIFFERENCE
          BETWEEN THE ESTIMATED "MEMORY TO MINIMIZE I/O" AND THE MEMORY UPPER LIMIT. HOWEVER ACCURATE
          ESTIMATE OF THE SCRATCH DISK SPACE IS NOT POSSIBLE.
      (6) USING "*RESTART, WRITE" CAN GENERATE A LARGE AMOUNT OF DATA WRITTEN IN THE WORK DIRECTORY.


          THE ANALYSIS HAS BEEN COMPLETED



                              ANALYSIS COMPLETE
                              WITH     16 WARNING MESSAGES ON THE DAT FILE
                              AND      44 WARNING MESSAGES ON THE MSG FILE



     JOB TIME SUMMARY
       USER TIME (SEC)      =   11467.    
       SYSTEM TIME (SEC)    =   1373.1    
       TOTAL CPU TIME (SEC) =   12840.    
       WALLCLOCK TIME (SEC) =       1838
