1

   Abaqus 2020                                  Date 22-Jan-2022   Time 09:45:03
   For use by PURDUE UNIVERSITY under license from Dassault Systemes or its subsidiary.

                                                                                 
                                                                                 
 STEP    1     INCREMENT     1     STEP TIME    0.00    


                        S T E P       1     S T A T I C   A N A L Y S I S


                                                                                          

     AUTOMATIC TIME CONTROL WITH -
          A SUGGESTED INITIAL TIME INCREMENT OF                0.100    
          AND A TOTAL TIME PERIOD OF                            1.00    
          THE MINIMUM TIME INCREMENT ALLOWED IS                1.000E-07
          THE MAXIMUM TIME INCREMENT ALLOWED IS                0.100    

     LINEAR EQUATION SOLVER TYPE         DIRECT SPARSE

 CONVERGENCE TOLERANCE PARAMETERS FOR FORCE    
     CRITERION FOR RESIDUAL FORCE     FOR A NONLINEAR PROBLEM          5.000E-03
     CRITERION FOR DISP.    CORRECTION IN A NONLINEAR PROBLEM          1.000E-02
     INITIAL VALUE OF TIME AVERAGE FORCE                               1.000E-02
     AVERAGE FORCE     IS TIME AVERAGE FORCE    
     ALTERNATE CRIT. FOR RESIDUAL FORCE     FOR A NONLINEAR PROBLEM    2.000E-02
     CRITERION FOR ZERO FORCE     RELATIVE TO TIME AVRG. FORCE         1.000E-05
     CRITERION FOR RESIDUAL FORCE     WHEN THERE IS ZERO FLUX          1.000E-05
     CRITERION FOR DISP.    CORRECTION WHEN THERE IS ZERO FLUX         1.000E-03
     CRITERION FOR RESIDUAL FORCE     FOR A LINEAR INCREMENT           1.000E-08
     FIELD CONVERSION RATIO                                             1.00    
     CRITERION FOR ZERO FORCE     REL. TO TIME AVRG. MAX. FORCE        1.000E-05
     CRITERION FOR ZERO DISP.    RELATIVE TO CHARACTERISTIC LENGTH     1.000E-08

 CONVERGENCE TOLERANCE PARAMETERS FOR MOMENT   
     CRITERION FOR RESIDUAL MOMENT    FOR A NONLINEAR PROBLEM          5.000E-03
     CRITERION FOR ROTATION CORRECTION IN A NONLINEAR PROBLEM          1.000E-02
     INITIAL VALUE OF TIME AVERAGE MOMENT                              1.000E-02
     AVERAGE MOMENT    IS TIME AVERAGE MOMENT   
     ALTERNATE CRIT. FOR RESIDUAL MOMENT    FOR A NONLINEAR PROBLEM    2.000E-02
     CRITERION FOR ZERO MOMENT    RELATIVE TO TIME AVRG. MOMENT        1.000E-05
     CRITERION FOR RESIDUAL MOMENT    WHEN THERE IS ZERO FLUX          1.000E-05
     CRITERION FOR ROTATION CORRECTION WHEN THERE IS ZERO FLUX         1.000E-03
     CRITERION FOR RESIDUAL MOMENT    FOR A LINEAR INCREMENT           1.000E-08
     FIELD CONVERSION RATIO                                             1.00    
     CRITERION FOR ZERO MOMENT    REL. TO TIME AVRG. MAX. MOMENT       1.000E-05

 CONVERGENCE TOLERANCE PARAMETERS FOR VOL. FLUX
     CRITERION FOR RESIDUAL VOL. FLUX FOR A NONLINEAR PROBLEM          5.000E-03
     CRITERION FOR PR. LM.  CORRECTION IN A NONLINEAR PROBLEM          1.000E-02
     INITIAL VALUE OF TIME AVERAGE VOL. FLUX                           1.000E-02
     AVERAGE VOL. FLUX IS TIME AVERAGE VOL. FLUX
     ALTERNATE CRIT. FOR RESIDUAL VOL. FLUX FOR A NONLINEAR PROBLEM    2.000E-02
     CRITERION FOR ZERO VOL. FLUX RELATIVE TO TIME AVRG. VOL. FLUX     1.000E-05
     CRITERION FOR RESIDUAL VOL. FLUX WHEN THERE IS ZERO FLUX          1.000E-05
     CRITERION FOR PR. LM.  CORRECTION WHEN THERE IS ZERO FLUX         1.000E-03
     CRITERION FOR RESIDUAL VOL. FLUX FOR A LINEAR INCREMENT           1.000E-08
     FIELD CONVERSION RATIO                                             1.00    
     CRITERION FOR ZERO VOL. FLUX REL. TO TIME AVRG. MAX. VOL. FLUX    1.000E-05

     VOLUMETRIC STRAIN COMPATIBILITY TOLERANCE FOR HYBRID SOLIDS       1.000E-05
     AXIAL STRAIN COMPATIBILITY TOLERANCE FOR HYBRID BEAMS             1.000E-05
     TRANS. SHEAR STRAIN COMPATIBILITY TOLERANCE FOR HYBRID BEAMS      1.000E-05
     SOFT CONTACT CONSTRAINT COMPATIBILITY TOLERANCE FOR P>P0          5.000E-03
     SOFT CONTACT CONSTRAINT COMPATIBILITY TOLERANCE FOR P=0.0         0.100    
     CONTACT FORCE ERROR TOLERANCE FOR CONVERT SDI=YES                 1.00    
     DISPLACEMENT COMPATIBILITY TOLERANCE FOR DCOUP ELEMENTS           1.000E-05
     ROTATION COMPATIBILITY TOLERANCE FOR DCOUP ELEMENTS               1.000E-05

 EQUILIBRIUM WILL BE CHECKED FOR SEVERE DISCONTINUITY ITERATIONS

 TIME INCREMENTATION CONTROL PARAMETERS:
     FIRST EQUILIBRIUM ITERATION FOR CONSECUTIVE DIVERGENCE CHECK              4
     EQUILIBRIUM ITERATION AT WHICH LOG. CONVERGENCE RATE CHECK BEGINS         8
     EQUILIBRIUM ITERATION AFTER WHICH ALTERNATE RESIDUAL IS USED              9
     MAXIMUM EQUILIBRIUM ITERATIONS ALLOWED                                   16
     EQUILIBRIUM ITERATION COUNT FOR CUT-BACK IN NEXT INCREMENT               10
     MAXIMUM EQUILIB. ITERS IN TWO INCREMENTS FOR TIME INCREMENT INCREASE      4
     MAXIMUM ITERATIONS FOR SEVERE DISCONTINUITIES                            50
     MAXIMUM ATTEMPTS ALLOWED IN AN INCREMENT                                  5
     MAXIMUM DISCON. ITERS IN TWO INCREMENTS FOR TIME INCREMENT INCREASE      50
     MAXIMUM CONTACT AUGMENTATIONS FOR *SURFACE BEHAVIOR,AUGMENTED LAGRANGE   50
     CUT-BACK FACTOR AFTER DIVERGENCE                                 0.2500    
     CUT-BACK FACTOR FOR TOO SLOW CONVERGENCE                         0.5000    
     CUT-BACK FACTOR AFTER TOO MANY EQUILIBRIUM ITERATIONS            0.7500    
     CUT-BACK FACTOR AFTER TOO MANY SEVERE DISCONTINUITY ITERATIONS   0.2500    
     CUT-BACK FACTOR AFTER PROBLEMS IN ELEMENT ASSEMBLY               0.2500    
     INCREASE FACTOR AFTER TWO INCREMENTS THAT CONVERGE QUICKLY        1.500    
     MAX. TIME INCREMENT INCREASE FACTOR ALLOWED                       1.500    
     MAX. TIME INCREMENT INCREASE FACTOR ALLOWED (DYNAMICS)            1.250    
     MAX. TIME INCREMENT INCREASE FACTOR ALLOWED (DIFFUSION)           2.000    
     MINIMUM TIME INCREMENT RATIO FOR EXTRAPOLATION TO OCCUR          0.1000    
     MAX. RATIO OF TIME INCREMENT TO STABILITY LIMIT                   1.000    
     FRACTION OF STABILITY LIMIT FOR NEW TIME INCREMENT               0.9500    
     TIME INCREMENT INCREASE FACTOR BEFORE A TIME POINT                1.000    
     GLOBAL STABILIZATION CONTROL IS NOT USED

          PRINT OF INCREMENT NUMBER, TIME, ETC., EVERY    1  INCREMENTS

     THE MAXIMUM NUMBER OF INCREMENTS IN THIS STEP IS                   10000

          LARGE DISPLACEMENT THEORY WILL BE USED

     LINEAR EXTRAPOLATION WILL BE USED

     CHARACTERISTIC ELEMENT LENGTH      6.80    

     DETAILS REGARDING ACTUAL SOLUTION WAVEFRONT REQUESTED

     DETAILED OUTPUT OF DIAGNOSTICS TO DATABASE REQUESTED

     PRINT OF INCREMENT NUMBER, TIME, ETC., TO THE MESSAGE FILE EVERY     1  INCREMENTS

     ELEMENT OPERATIONS WILL BE CARRIED OUT IN PARALLEL USING  24 PROCESSORS

     PARALLEL CONTACT TRACKING ENABLED


     COLLECTING MODEL CONSTRAINT INFORMATION FOR OVERCONSTRAINT CHECKS

     COLLECTING STEP CONSTRAINT INFORMATION FOR OVERCONSTRAINT CHECKS


  INCREMENT     1 STARTS. ATTEMPT NUMBER  1, TIME INCREMENT  0.100    
 
     INITIAL ELEMENT LOAD BALANCE
            PROCESS    1   THREAD     NUMBER OF ELEMENTS
                              1            4608
                              2            4608
                              3            4608
                              4            4096
                              5            4608
                              6            4904
                              7            4608
                              8            4404
                              9            4864
                             10            4864
                             11            4608
                             12            4352
                             13            4864
                             14            4864
                             15            5120
                             16            4352
                             17            4608
                             18            4608
                             19            4864
                             20            4096
                             21            4864
                             22            4352
                             23            4352
                             24            4352

 ***WARNING: THERE ARE 2 UNCONNECTED REGIONS IN THE MODEL.

 ***NOTE: SFM TYPE SURFACE ELEMENTS USED TO DEFINE CONTACT SURFACES NOT PART OF 
          A RIGID BODY MAY INCREASE THE NUMBER OR UNCONNECTED REGIONS REPORTED.

  NUMBER OF EQUATIONS =    101601     NUMBER OF RHS =    1
  NUMBER OF FLOATING PT. OPERATIONS =  9.66E+09

  USING THE DIRECT SOLVER WITH  24 PROCESSORS

     CHECK POINT   START OF SOLVER    

     CHECK POINT  END OF SOLVER       

       ELAPSED USER TIME (SEC)      =   6.0200    
       ELAPSED SYSTEM TIME (SEC)    =   1.6500    
       ELAPSED TOTAL CPU TIME (SEC) =   7.6700    
       ELAPSED WALLCLOCK TIME (SEC) =          1

                    8 SEVERE DISCONTINUITIES OCCURRED DURING THIS ITERATION.
                    8 POINTS CHANGED FROM OPEN TO CLOSED

               CONVERGENCE CHECKS FOR SEVERE DISCONTINUITY ITERATION     1

   MAX. PENETRATION ERROR 178.024E-03   AT NODE SCALP-1.21444 OF CONTACT PAIR 
   (ASSEMBLY_SURF-SCALP,ASSEMBLY_SURF-SKULL)
          PENETRATION ERROR TOO LARGE COMPARED TO DISPLACEMENT INCREMENT.

 AVERAGE FORCE                      3.359E-02   TIME AVG. FORCE       3.359E-02
 LARGEST RESIDUAL FORCE            -2.232E+03   AT NODE      21444   DOF  2
   INSTANCE: SCALP-1                                                                         
 LARGEST INCREMENT OF DISP.          2.00       AT NODE       5219   DOF  2
   INSTANCE: SCALP-1                                                                         
 LARGEST CORRECTION TO DISP.         2.00       AT NODE       5219   DOF  2
   INSTANCE: SCALP-1                                                                         
          FORCE     EQUILIBRIUM NOT ACHIEVED WITHIN TOLERANCE.

 AVERAGE MOMENT                      45.4       TIME AVG. MOMENT       45.4    
 ALL MOMENT    RESIDUALS ARE ZERO
 ALL ROTATION INCREMENTS ARE ZERO
 ALL CORRECTION TO ROTATION ARE ZERO
          THE MOMENT    EQUILIBRIUM EQUATIONS HAVE CONVERGED

 AVERAGE VOL. FLUX                  1.893E-04   TIME AVG. VOL. FLUX   1.893E-04
 LARGEST RESIDUAL VOL. FLUX         5.444E-02   AT NODE      14901
   INSTANCE: SCALP-1                                                                         
 LARGEST INCREMENT OF PR. LM.       4.187E-03   AT NODE        646
   INSTANCE: SCALP-1                                                                         
 LARGEST CORRECTION TO PR. LM.      4.187E-03   AT NODE        646
   INSTANCE: SCALP-1                                                                         
          VOL. FLUX EQUILIBRIUM NOT ACHIEVED WITHIN TOLERANCE.

  NUMBER OF EQUATIONS =    101609     NUMBER OF RHS =    1
  NUMBER OF FLOATING PT. OPERATIONS =  9.83E+09

  USING THE DIRECT SOLVER WITH  24 PROCESSORS

     CHECK POINT   START OF SOLVER    

     CHECK POINT  END OF SOLVER       

       ELAPSED USER TIME (SEC)      =   4.1500    
       ELAPSED SYSTEM TIME (SEC)    =  0.76000    
       ELAPSED TOTAL CPU TIME (SEC) =   4.9100    
       ELAPSED WALLCLOCK TIME (SEC) =          1

                    6 SEVERE DISCONTINUITIES OCCURRED DURING THIS ITERATION.
                    1 POINTS CHANGED FROM OPEN TO CLOSED
                    5 POINTS CHANGED FROM CLOSED TO OPEN

               CONVERGENCE CHECKS FOR SEVERE DISCONTINUITY ITERATION     2

   MAX. PENETRATION ERROR -13.0051E-03  AT NODE SCALP-1.21443 OF CONTACT PAIR 
   (ASSEMBLY_SURF-SCALP,ASSEMBLY_SURF-SKULL)
   MAX. CONTACT FORCE ERROR -1.30791E-03 AT NODE SCALP-1.18040 OF CONTACT PAIR 
   (ASSEMBLY_SURF-SCALP,ASSEMBLY_SURF-SKULL)
          PENETRATION ERROR TOO LARGE COMPARED TO DISPLACEMENT INCREMENT.

 AVERAGE FORCE                      4.568E-03   TIME AVG. FORCE       4.568E-03
 LARGEST RESIDUAL FORCE             -161.       AT NODE      21447   DOF  2
   INSTANCE: SCALP-1                                                                         
 LARGEST INCREMENT OF DISP.          1.81       AT NODE       5222   DOF  2
   INSTANCE: SCALP-1                                                                         
 LARGEST CORRECTION TO DISP.       -0.878       AT NODE       6298   DOF  1
   INSTANCE: SCALP-1                                                                         
          FORCE     EQUILIBRIUM NOT ACHIEVED WITHIN TOLERANCE.

 AVERAGE MOMENT                      1.86       TIME AVG. MOMENT       1.86    
 ALL MOMENT    RESIDUALS ARE ZERO
 LARGEST INCREMENT OF ROTATION      3.327E-39   AT NODE          1   DOF  6
   INSTANCE: {assembly node}                                                                 
 LARGEST CORRECTION TO ROTATION     3.327E-39   AT NODE          1   DOF  6
   INSTANCE: {assembly node}                                                                 
          THE MOMENT    EQUILIBRIUM EQUATIONS HAVE CONVERGED

 AVERAGE VOL. FLUX                  1.374E-04   TIME AVG. VOL. FLUX   1.374E-04
 LARGEST RESIDUAL VOL. FLUX         2.348E-02   AT NODE      14901
   INSTANCE: SCALP-1                                                                         
 LARGEST INCREMENT OF PR. LM.       3.975E-03   AT NODE       3617
   INSTANCE: SCALP-1                                                                         
 LARGEST CORRECTION TO PR. LM.      3.036E-03   AT NODE      16225
   INSTANCE: SCALP-1                                                                         
          VOL. FLUX EQUILIBRIUM NOT ACHIEVED WITHIN TOLERANCE.

  NUMBER OF EQUATIONS =    101605     NUMBER OF RHS =    1
  NUMBER OF FLOATING PT. OPERATIONS =  9.83E+09

  USING THE DIRECT SOLVER WITH  24 PROCESSORS

     CHECK POINT   START OF SOLVER    

     CHECK POINT  END OF SOLVER       

       ELAPSED USER TIME (SEC)      =   3.3200    
       ELAPSED SYSTEM TIME (SEC)    =  0.72000    
       ELAPSED TOTAL CPU TIME (SEC) =   4.0400    
       ELAPSED WALLCLOCK TIME (SEC) =          0

                    2 SEVERE DISCONTINUITIES OCCURRED DURING THIS ITERATION.
                    2 POINTS CHANGED FROM CLOSED TO OPEN

               CONVERGENCE CHECKS FOR SEVERE DISCONTINUITY ITERATION     3

   MAX. PENETRATION ERROR 449.892E-06   AT NODE SCALP-1.5131 OF CONTACT PAIR 
   (ASSEMBLY_SURF-SCALP,ASSEMBLY_SURF-SKULL)
   MAX. CONTACT FORCE ERROR -258.183E-06   AT NODE SCALP-1.21443 OF CONTACT 
   PAIR (ASSEMBLY_SURF-SCALP,ASSEMBLY_SURF-SKULL)
          THE ESTIMATED CONTACT FORCE ERROR IS OUTSIDE OF CONVERGENCE TOLERANCES.

 AVERAGE FORCE                      1.840E-04   TIME AVG. FORCE       1.840E-04
 LARGEST RESIDUAL FORCE             -10.4       AT NODE       3126   DOF  3
   INSTANCE: SCALP-1                                                                         
 LARGEST INCREMENT OF DISP.          1.74       AT NODE       5219   DOF  2
   INSTANCE: SCALP-1                                                                         
 LARGEST CORRECTION TO DISP.        0.273       AT NODE       6299   DOF  2
   INSTANCE: SCALP-1                                                                         
          FORCE     EQUILIBRIUM NOT ACHIEVED WITHIN TOLERANCE.

 AVERAGE MOMENT                     1.267E-02   TIME AVG. MOMENT      1.267E-02
 ALL MOMENT    RESIDUALS ARE ZERO
 LARGEST INCREMENT OF ROTATION      1.175E-39   AT NODE          1   DOF  4
   INSTANCE: {assembly node}                                                                 
 LARGEST CORRECTION TO ROTATION     3.381E-39   AT NODE          1   DOF  4
   INSTANCE: {assembly node}                                                                 
          THE MOMENT    EQUILIBRIUM EQUATIONS HAVE CONVERGED

 AVERAGE VOL. FLUX                  1.357E-04   TIME AVG. VOL. FLUX   1.357E-04
 LARGEST RESIDUAL VOL. FLUX         1.958E-03   AT NODE      23633
   INSTANCE: SCALP-1                                                                         
 LARGEST INCREMENT OF PR. LM.       2.809E-03   AT NODE       3617
   INSTANCE: SCALP-1                                                                         
 LARGEST CORRECTION TO PR. LM.     -3.644E-03   AT NODE       4515
   INSTANCE: SCALP-1                                                                         
          VOL. FLUX EQUILIBRIUM NOT ACHIEVED WITHIN TOLERANCE.

  NUMBER OF EQUATIONS =    101603     NUMBER OF RHS =    1
  NUMBER OF FLOATING PT. OPERATIONS =  9.83E+09

  USING THE DIRECT SOLVER WITH  24 PROCESSORS

     CHECK POINT   START OF SOLVER    

     CHECK POINT  END OF SOLVER       

       ELAPSED USER TIME (SEC)      =   3.0400    
       ELAPSED SYSTEM TIME (SEC)    =  0.53000    
       ELAPSED TOTAL CPU TIME (SEC) =   3.5700    
       ELAPSED WALLCLOCK TIME (SEC) =          1

                    1 SEVERE DISCONTINUITIES OCCURRED DURING THIS ITERATION.
                    1 POINTS CHANGED FROM CLOSED TO OPEN

               CONVERGENCE CHECKS FOR SEVERE DISCONTINUITY ITERATION     4

   MAX. PENETRATION ERROR -1.07938E-03 AT NODE SCALP-1.5131 OF CONTACT PAIR 
   (ASSEMBLY_SURF-SCALP,ASSEMBLY_SURF-SKULL)
   MAX. CONTACT FORCE ERROR -64.7399E-06  AT NODE SCALP-1.21444 OF CONTACT PAIR 
   (ASSEMBLY_SURF-SCALP,ASSEMBLY_SURF-SKULL)
          THE ESTIMATED CONTACT FORCE ERROR IS OUTSIDE OF CONVERGENCE TOLERANCES.

 AVERAGE FORCE                      5.946E-05   TIME AVG. FORCE       5.946E-05
 LARGEST RESIDUAL FORCE              4.37       AT NODE       5131   DOF  2
   INSTANCE: SCALP-1                                                                         
 LARGEST INCREMENT OF DISP.          1.43       AT NODE       5219   DOF  2
   INSTANCE: SCALP-1                                                                         
 LARGEST CORRECTION TO DISP.       -0.314       AT NODE       5219   DOF  2
   INSTANCE: SCALP-1                                                                         
          FORCE     EQUILIBRIUM NOT ACHIEVED WITHIN TOLERANCE.

 AVERAGE MOMENT                     3.041E-02   TIME AVG. MOMENT      3.041E-02
 ALL MOMENT    RESIDUALS ARE ZERO
 LARGEST INCREMENT OF ROTATION      6.968E-39   AT NODE          1   DOF  4
   INSTANCE: {assembly node}                                                                 
 LARGEST CORRECTION TO ROTATION     5.794E-39   AT NODE          1   DOF  4
   INSTANCE: {assembly node}                                                                 
          THE MOMENT    EQUILIBRIUM EQUATIONS HAVE CONVERGED

 AVERAGE VOL. FLUX                  1.215E-04   TIME AVG. VOL. FLUX   1.215E-04
 LARGEST RESIDUAL VOL. FLUX         3.965E-03   AT NODE       8791
   INSTANCE: SCALP-1                                                                         
 LARGEST INCREMENT OF PR. LM.       3.220E-03   AT NODE       3617
   INSTANCE: SCALP-1                                                                         
 LARGEST CORRECTION TO PR. LM.      8.379E-04   AT NODE       4515
   INSTANCE: SCALP-1                                                                         
          VOL. FLUX EQUILIBRIUM NOT ACHIEVED WITHIN TOLERANCE.

  NUMBER OF EQUATIONS =    101602     NUMBER OF RHS =    1
  NUMBER OF FLOATING PT. OPERATIONS =  9.83E+09

  USING THE DIRECT SOLVER WITH  24 PROCESSORS

     CHECK POINT   START OF SOLVER    

     CHECK POINT  END OF SOLVER       

       ELAPSED USER TIME (SEC)      =   6.6400    
       ELAPSED SYSTEM TIME (SEC)    =  0.74000    
       ELAPSED TOTAL CPU TIME (SEC) =   7.3800    
       ELAPSED WALLCLOCK TIME (SEC) =          0

               CONVERGENCE CHECKS FOR EQUILIBRIUM ITERATION     1

   MAX. PENETRATION ERROR -70.2437E-06  AT NODE SCALP-1.5131 OF CONTACT PAIR 
   (ASSEMBLY_SURF-SCALP,ASSEMBLY_SURF-SKULL)
          THE CONTACT CONSTRAINTS HAVE CONVERGED.

 AVERAGE FORCE                      9.191E-06   TIME AVG. FORCE       9.191E-06
 LARGEST RESIDUAL FORCE             0.285       AT NODE       5131   DOF  2
   INSTANCE: SCALP-1                                                                         
 LARGEST INCREMENT OF DISP.          1.35       AT NODE       5219   DOF  2
   INSTANCE: SCALP-1                                                                         
 LARGEST CORRECTION TO DISP.       -8.356E-02   AT NODE      18122   DOF  2
   INSTANCE: SCALP-1                                                                         
          FORCE     EQUILIBRIUM NOT ACHIEVED WITHIN TOLERANCE.

 AVERAGE MOMENT                     1.981E-03   TIME AVG. MOMENT      1.981E-03
 ALL MOMENT    RESIDUALS ARE ZERO
 LARGEST INCREMENT OF ROTATION      1.114E-38   AT NODE          1   DOF  4
   INSTANCE: {assembly node}                                                                 
 LARGEST CORRECTION TO ROTATION    -4.500E-39   AT NODE          1   DOF  6
   INSTANCE: {assembly node}                                                                 
          THE MOMENT    EQUILIBRIUM RESPONSE WAS LINEAR IN THIS INCREMENT

 AVERAGE VOL. FLUX                  1.202E-04   TIME AVG. VOL. FLUX   1.202E-04
 LARGEST RESIDUAL VOL. FLUX         3.040E-04   AT NODE      21451
   INSTANCE: SCALP-1                                                                         
 LARGEST INCREMENT OF PR. LM.       3.299E-03   AT NODE       3617
   INSTANCE: SCALP-1                                                                         
 LARGEST CORRECTION TO PR. LM.     -1.657E-04   AT NODE       4515
   INSTANCE: SCALP-1                                                                         
          VOL. FLUX EQUILIBRIUM NOT ACHIEVED WITHIN TOLERANCE.

  NUMBER OF EQUATIONS =    101602     NUMBER OF RHS =    1
  NUMBER OF FLOATING PT. OPERATIONS =  9.83E+09

  USING THE DIRECT SOLVER WITH  24 PROCESSORS

     CHECK POINT   START OF SOLVER    

     CHECK POINT  END OF SOLVER       

       ELAPSED USER TIME (SEC)      =   5.5000    
       ELAPSED SYSTEM TIME (SEC)    =  0.60000    
       ELAPSED TOTAL CPU TIME (SEC) =   6.1000    
       ELAPSED WALLCLOCK TIME (SEC) =          1

               CONVERGENCE CHECKS FOR EQUILIBRIUM ITERATION     2

   MAX. PENETRATION ERROR -2.50472E-06 AT NODE SCALP-1.5131 OF CONTACT PAIR 
   (ASSEMBLY_SURF-SCALP,ASSEMBLY_SURF-SKULL)
          THE CONTACT CONSTRAINTS HAVE CONVERGED.

 AVERAGE FORCE                      6.219E-06   TIME AVG. FORCE       6.219E-06
 LARGEST RESIDUAL FORCE             1.015E-02   AT NODE       5131   DOF  2
   INSTANCE: SCALP-1                                                                         
 LARGEST INCREMENT OF DISP.          1.34       AT NODE       5219   DOF  2
   INSTANCE: SCALP-1                                                                         
 LARGEST CORRECTION TO DISP.        1.251E-02   AT NODE      15166   DOF  2
   INSTANCE: SCALP-1                                                                         
          FORCE     EQUILIBRIUM NOT ACHIEVED WITHIN TOLERANCE.

 AVERAGE MOMENT                     7.034E-05   TIME AVG. MOMENT      7.034E-05
 ALL MOMENT    RESIDUALS ARE ZERO
 LARGEST INCREMENT OF ROTATION      1.526E-38   AT NODE          1   DOF  4
   INSTANCE: {assembly node}                                                                 
 LARGEST CORRECTION TO ROTATION    -4.454E-39   AT NODE          1   DOF  6
   INSTANCE: {assembly node}                                                                 
          THE MOMENT    EQUILIBRIUM EQUATIONS HAVE CONVERGED

 AVERAGE VOL. FLUX                  1.200E-04   TIME AVG. VOL. FLUX   1.200E-04
 LARGEST RESIDUAL VOL. FLUX         5.040E-06   AT NODE        282
   INSTANCE: SCALP-1                                                                         
 LARGEST INCREMENT OF PR. LM.       3.325E-03   AT NODE       3617
   INSTANCE: SCALP-1                                                                         
 LARGEST CORRECTION TO PR. LM.      5.948E-05   AT NODE       4515
   INSTANCE: SCALP-1                                                                         
          VOL. FLUX EQUILIBRIUM NOT ACHIEVED WITHIN TOLERANCE.

  NUMBER OF EQUATIONS =    101602     NUMBER OF RHS =    1
  NUMBER OF FLOATING PT. OPERATIONS =  9.83E+09

  USING THE DIRECT SOLVER WITH  24 PROCESSORS

     CHECK POINT   START OF SOLVER    

     CHECK POINT  END OF SOLVER       

       ELAPSED USER TIME (SEC)      =   3.4300    
       ELAPSED SYSTEM TIME (SEC)    =  0.64000    
       ELAPSED TOTAL CPU TIME (SEC) =   4.0700    
       ELAPSED WALLCLOCK TIME (SEC) =          1

               CONVERGENCE CHECKS FOR EQUILIBRIUM ITERATION     3

   MAX. PENETRATION ERROR 790.130E-09   AT NODE SCALP-1.5131 OF CONTACT PAIR 
   (ASSEMBLY_SURF-SCALP,ASSEMBLY_SURF-SKULL)
          THE CONTACT CONSTRAINTS HAVE CONVERGED.

 AVERAGE FORCE                      6.195E-06   TIME AVG. FORCE       6.195E-06
 LARGEST RESIDUAL FORCE            -3.201E-03   AT NODE       5131   DOF  2
   INSTANCE: SCALP-1                                                                         
 LARGEST INCREMENT OF DISP.          1.34       AT NODE       5219   DOF  2
   INSTANCE: SCALP-1                                                                         
 LARGEST CORRECTION TO DISP.        2.431E-03   AT NODE       3153   DOF  2
   INSTANCE: SCALP-1                                                                         
          FORCE     EQUILIBRIUM NOT ACHIEVED WITHIN TOLERANCE.

 AVERAGE MOMENT                     2.259E-05   TIME AVG. MOMENT      2.259E-05
 ALL MOMENT    RESIDUALS ARE ZERO
 LARGEST INCREMENT OF ROTATION      1.937E-38   AT NODE          1   DOF  4
   INSTANCE: {assembly node}                                                                 
 LARGEST CORRECTION TO ROTATION    -4.444E-39   AT NODE          1   DOF  6
   INSTANCE: {assembly node}                                                                 
          THE MOMENT    EQUILIBRIUM EQUATIONS HAVE CONVERGED

 AVERAGE VOL. FLUX                  1.200E-04   TIME AVG. VOL. FLUX   1.200E-04
 LARGEST RESIDUAL VOL. FLUX         2.878E-07   AT NODE       8791
   INSTANCE: SCALP-1                                                                         
 LARGEST INCREMENT OF PR. LM.       3.325E-03   AT NODE       3617
   INSTANCE: SCALP-1                                                                         
 LARGEST CORRECTION TO PR. LM.      4.637E-06   AT NODE       3108
   INSTANCE: SCALP-1                                                                         
          THE VOL. FLUX EQUILIBRIUM EQUATIONS HAVE CONVERGED

  NUMBER OF EQUATIONS =    101602     NUMBER OF RHS =    1
  NUMBER OF FLOATING PT. OPERATIONS =  9.83E+09

  USING THE DIRECT SOLVER WITH  24 PROCESSORS

     CHECK POINT   START OF SOLVER    

     CHECK POINT  END OF SOLVER       

       ELAPSED USER TIME (SEC)      =   4.1600    
       ELAPSED SYSTEM TIME (SEC)    =  0.60000    
       ELAPSED TOTAL CPU TIME (SEC) =   4.7600    
       ELAPSED WALLCLOCK TIME (SEC) =          0

               CONVERGENCE CHECKS FOR EQUILIBRIUM ITERATION     4

   MAX. PENETRATION ERROR 105.456E-09   AT NODE SCALP-1.5131 OF CONTACT PAIR 
   (ASSEMBLY_SURF-SCALP,ASSEMBLY_SURF-SKULL)
          THE CONTACT CONSTRAINTS HAVE CONVERGED.

 AVERAGE FORCE                      6.207E-06   TIME AVG. FORCE       6.207E-06
 LARGEST RESIDUAL FORCE            -4.272E-04   AT NODE       5131   DOF  2
   INSTANCE: SCALP-1                                                                         
 LARGEST INCREMENT OF DISP.          1.34       AT NODE       5219   DOF  2
   INSTANCE: SCALP-1                                                                         
 LARGEST CORRECTION TO DISP.        1.989E-04   AT NODE       3148   DOF  2
   INSTANCE: SCALP-1                                                                         
          FORCE     EQUILIBRIUM NOT ACHIEVED WITHIN TOLERANCE.

 AVERAGE MOMENT                     3.280E-06   TIME AVG. MOMENT      3.280E-06
 ALL MOMENT    RESIDUALS ARE ZERO
 LARGEST INCREMENT OF ROTATION      2.348E-38   AT NODE          1   DOF  4
   INSTANCE: {assembly node}                                                                 
 LARGEST CORRECTION TO ROTATION    -4.443E-39   AT NODE          1   DOF  6
   INSTANCE: {assembly node}                                                                 
          THE MOMENT    EQUILIBRIUM EQUATIONS HAVE CONVERGED

 AVERAGE VOL. FLUX                  1.200E-04   TIME AVG. VOL. FLUX   1.200E-04
 LARGEST RESIDUAL VOL. FLUX        -6.582E-09   AT NODE      21449
   INSTANCE: SCALP-1                                                                         
 LARGEST INCREMENT OF PR. LM.       3.325E-03   AT NODE       3617
   INSTANCE: SCALP-1                                                                         
 LARGEST CORRECTION TO PR. LM.      1.275E-06   AT NODE       6280
   INSTANCE: SCALP-1                                                                         
          THE VOL. FLUX EQUILIBRIUM EQUATIONS HAVE CONVERGED

  NUMBER OF EQUATIONS =    101602     NUMBER OF RHS =    1
  NUMBER OF FLOATING PT. OPERATIONS =  9.83E+09

  USING THE DIRECT SOLVER WITH  24 PROCESSORS

     CHECK POINT   START OF SOLVER    

     CHECK POINT  END OF SOLVER       

       ELAPSED USER TIME (SEC)      =   6.6800    
       ELAPSED SYSTEM TIME (SEC)    =  0.60000    
       ELAPSED TOTAL CPU TIME (SEC) =   7.2800    
       ELAPSED WALLCLOCK TIME (SEC) =          1

               CONVERGENCE CHECKS FOR EQUILIBRIUM ITERATION     5

   MAX. PENETRATION ERROR 3.69326E-09 AT NODE SCALP-1.5131 OF CONTACT PAIR 
   (ASSEMBLY_SURF-SCALP,ASSEMBLY_SURF-SKULL)
          THE CONTACT CONSTRAINTS HAVE CONVERGED.

 AVERAGE FORCE                      6.226E-06   TIME AVG. FORCE       6.226E-06
 LARGEST RESIDUAL FORCE            -1.496E-05   AT NODE       5131   DOF  2
   INSTANCE: SCALP-1                                                                         
 LARGEST INCREMENT OF DISP.          1.34       AT NODE       5219   DOF  2
   INSTANCE: SCALP-1                                                                         
 LARGEST CORRECTION TO DISP.        2.159E-05   AT NODE      10225   DOF  2
   INSTANCE: SCALP-1                                                                         
          FORCE     EQUILIBRIUM NOT ACHIEVED WITHIN TOLERANCE.

 AVERAGE MOMENT                     4.094E-07   TIME AVG. MOMENT      6.797E-02
                                                (FROM FORCE     FIELD)
 ALL MOMENT    RESIDUALS ARE ZERO
 LARGEST INCREMENT OF ROTATION      2.759E-38   AT NODE          1   DOF  4
   INSTANCE: {assembly node}                                                                 
 LARGEST CORRECTION TO ROTATION    -4.443E-39   AT NODE          1   DOF  6
   INSTANCE: {assembly node}                                                                 
          THERE IS ZERO MOMENT    EVERYWHERE

 AVERAGE VOL. FLUX                  1.200E-04   TIME AVG. VOL. FLUX   1.200E-04
 LARGEST RESIDUAL VOL. FLUX        -1.051E-10   AT NODE      15199
   INSTANCE: SCALP-1                                                                         
 LARGEST INCREMENT OF PR. LM.       3.325E-03   AT NODE       3617
   INSTANCE: SCALP-1                                                                         
 LARGEST CORRECTION TO PR. LM.     -3.485E-07   AT NODE       8410
   INSTANCE: SCALP-1                                                                         
          THE VOL. FLUX EQUILIBRIUM EQUATIONS HAVE CONVERGED

  NUMBER OF EQUATIONS =    101602     NUMBER OF RHS =    1
  NUMBER OF FLOATING PT. OPERATIONS =  9.83E+09

  USING THE DIRECT SOLVER WITH  24 PROCESSORS

     CHECK POINT   START OF SOLVER    

     CHECK POINT  END OF SOLVER       

       ELAPSED USER TIME (SEC)      =   4.7300    
       ELAPSED SYSTEM TIME (SEC)    =  0.69000    
       ELAPSED TOTAL CPU TIME (SEC) =   5.4200    
       ELAPSED WALLCLOCK TIME (SEC) =          0

               CONVERGENCE CHECKS FOR EQUILIBRIUM ITERATION     6

   MAX. PENETRATION ERROR 315.336E-12   AT NODE SCALP-1.5131 OF CONTACT PAIR 
   (ASSEMBLY_SURF-SCALP,ASSEMBLY_SURF-SKULL)
          THE CONTACT CONSTRAINTS HAVE CONVERGED.

 AVERAGE FORCE                      6.246E-06   TIME AVG. FORCE       6.246E-06
 LARGEST RESIDUAL FORCE            -1.277E-06   AT NODE       5131   DOF  2
   INSTANCE: SCALP-1                                                                         
 LARGEST INCREMENT OF DISP.          1.34       AT NODE       5219   DOF  2
   INSTANCE: SCALP-1                                                                         
 LARGEST CORRECTION TO DISP.        1.670E-06   AT NODE      15199   DOF  3
   INSTANCE: SCALP-1                                                                         
          FORCE     EQUILIBRIUM NOT ACHIEVED WITHIN TOLERANCE.

 AVERAGE MOMENT                     3.141E-07   TIME AVG. MOMENT      6.797E-02
                                                (FROM FORCE     FIELD)
 ALL MOMENT    RESIDUALS ARE ZERO
 LARGEST INCREMENT OF ROTATION      3.170E-38   AT NODE          1   DOF  4
   INSTANCE: {assembly node}                                                                 
 LARGEST CORRECTION TO ROTATION    -4.443E-39   AT NODE          1   DOF  6
   INSTANCE: {assembly node}                                                                 
          THERE IS ZERO MOMENT    EVERYWHERE

 AVERAGE VOL. FLUX                  1.200E-04   TIME AVG. VOL. FLUX   1.200E-04
 LARGEST RESIDUAL VOL. FLUX        -1.231E-12   AT NODE       6589
   INSTANCE: SCALP-1                                                                         
 LARGEST INCREMENT OF PR. LM.       3.325E-03   AT NODE       3617
   INSTANCE: SCALP-1                                                                         
 LARGEST CORRECTION TO PR. LM.     -3.485E-07   AT NODE       8410
   INSTANCE: SCALP-1                                                                         
          THE VOL. FLUX EQUILIBRIUM EQUATIONS HAVE CONVERGED

  NUMBER OF EQUATIONS =    101602     NUMBER OF RHS =    1
  NUMBER OF FLOATING PT. OPERATIONS =  9.83E+09

  USING THE DIRECT SOLVER WITH  24 PROCESSORS

     CHECK POINT   START OF SOLVER    

     CHECK POINT  END OF SOLVER       

       ELAPSED USER TIME (SEC)      =   8.1400    
       ELAPSED SYSTEM TIME (SEC)    =  0.72000    
       ELAPSED TOTAL CPU TIME (SEC) =   8.8600    
       ELAPSED WALLCLOCK TIME (SEC) =          1

               CONVERGENCE CHECKS FOR EQUILIBRIUM ITERATION     7

   MAX. PENETRATION ERROR -2.82239E-12 AT NODE SCALP-1.5131 OF CONTACT PAIR 
   (ASSEMBLY_SURF-SCALP,ASSEMBLY_SURF-SKULL)
          THE CONTACT CONSTRAINTS HAVE CONVERGED.

 AVERAGE FORCE                      6.266E-06   TIME AVG. FORCE       6.266E-06
 LARGEST RESIDUAL FORCE             1.143E-08   AT NODE       5131   DOF  2
   INSTANCE: SCALP-1                                                                         
 LARGEST INCREMENT OF DISP.          1.34       AT NODE       5219   DOF  2
   INSTANCE: SCALP-1                                                                         
 LARGEST CORRECTION TO DISP.        4.250E-08   AT NODE        207   DOF  3
   INSTANCE: SCALP-1                                                                         
          THE FORCE     EQUILIBRIUM EQUATIONS HAVE CONVERGED

 AVERAGE MOMENT                     3.052E-07   TIME AVG. MOMENT      6.797E-02
                                                (FROM FORCE     FIELD)
 ALL MOMENT    RESIDUALS ARE ZERO
 LARGEST INCREMENT OF ROTATION      3.581E-38   AT NODE          1   DOF  4
   INSTANCE: {assembly node}                                                                 
 LARGEST CORRECTION TO ROTATION    -4.443E-39   AT NODE          1   DOF  6
   INSTANCE: {assembly node}                                                                 
          THERE IS ZERO MOMENT    EVERYWHERE

 AVERAGE VOL. FLUX                  1.200E-04   TIME AVG. VOL. FLUX   1.200E-04
 LARGEST RESIDUAL VOL. FLUX        -6.020E-14   AT NODE      18258
   INSTANCE: SCALP-1                                                                         
 LARGEST INCREMENT OF PR. LM.       3.325E-03   AT NODE       3617
   INSTANCE: SCALP-1                                                                         
 LARGEST CORRECTION TO PR. LM.     -3.485E-07   AT NODE       8410
   INSTANCE: SCALP-1                                                                         
          THE VOL. FLUX EQUILIBRIUM EQUATIONS HAVE CONVERGED

 ITERATION SUMMARY FOR THE INCREMENT:  11 TOTAL ITERATIONS, OF WHICH
   4 ARE SEVERE DISCONTINUITY ITERATIONS AND  7 ARE EQUILIBRIUM ITERATIONS.

 TIME INCREMENT COMPLETED  0.100    ,  FRACTION OF STEP COMPLETED  0.100    
 STEP TIME COMPLETED       0.100    ,  TOTAL TIME COMPLETED        0.100    


  INCREMENT     2 STARTS. ATTEMPT NUMBER  1, TIME INCREMENT  0.100    

  NUMBER OF EQUATIONS =    101602     NUMBER OF RHS =    1
  NUMBER OF FLOATING PT. OPERATIONS =  9.83E+09

  USING THE DIRECT SOLVER WITH  24 PROCESSORS

     CHECK POINT   START OF SOLVER    

     CHECK POINT  END OF SOLVER       

       ELAPSED USER TIME (SEC)      =   7.3700    
       ELAPSED SYSTEM TIME (SEC)    =  0.83000    
       ELAPSED TOTAL CPU TIME (SEC) =   8.2000    
       ELAPSED WALLCLOCK TIME (SEC) =          1

               CONVERGENCE CHECKS FOR EQUILIBRIUM ITERATION     1

   MAX. PENETRATION ERROR -21.9210E-03  AT NODE SCALP-1.5131 OF CONTACT PAIR 
   (ASSEMBLY_SURF-SCALP,ASSEMBLY_SURF-SKULL)
          PENETRATION ERROR TOO LARGE COMPARED TO DISPLACEMENT INCREMENT.

 AVERAGE FORCE                      3.530E-03   TIME AVG. FORCE       1.768E-03
 LARGEST RESIDUAL FORCE              88.7       AT NODE       5131   DOF  2
   INSTANCE: SCALP-1                                                                         
 LARGEST INCREMENT OF DISP.        -0.957       AT NODE       6283   DOF  3
   INSTANCE: SCALP-1                                                                         
 LARGEST CORRECTION TO DISP.        -1.53       AT NODE       5129   DOF  2
   INSTANCE: SCALP-1                                                                         
          FORCE     EQUILIBRIUM NOT ACHIEVED WITHIN TOLERANCE.
 

 ***WARNING: THE AVERAGE FORCE USED TO ENFORCE CONTACT CONSTRAINTS AT NODE 
             SCALP-1.5131 IS 11.3617E+03  TIMES LARGER THAN THE AVERAGE AT THE 
             OTHER NODES IN THE MODEL.

 AVERAGE MOMENT                     0.623       TIME AVG. MOMENT      0.623    
 ALL MOMENT    RESIDUALS ARE ZERO
 LARGEST INCREMENT OF ROTATION     -1.010E-38   AT NODE          1   DOF  6
   INSTANCE: {assembly node}                                                                 
 LARGEST CORRECTION TO ROTATION    -2.764E-38   AT NODE          1   DOF  4
   INSTANCE: {assembly node}                                                                 
          THE MOMENT    EQUILIBRIUM RESPONSE WAS LINEAR IN THIS INCREMENT

 AVERAGE VOL. FLUX                  1.057E-03   TIME AVG. VOL. FLUX   5.883E-04
 LARGEST RESIDUAL VOL. FLUX         1.575E-02   AT NODE      21451
   INSTANCE: SCALP-1                                                                         
 LARGEST INCREMENT OF PR. LM.       3.729E-03   AT NODE       3617
   INSTANCE: SCALP-1                                                                         
 LARGEST CORRECTION TO PR. LM.     -9.687E-04   AT NODE       3121
   INSTANCE: SCALP-1                                                                         
          VOL. FLUX EQUILIBRIUM NOT ACHIEVED WITHIN TOLERANCE.

  NUMBER OF EQUATIONS =    101602     NUMBER OF RHS =    1
  NUMBER OF FLOATING PT. OPERATIONS =  9.83E+09

  USING THE DIRECT SOLVER WITH  24 PROCESSORS

     CHECK POINT   START OF SOLVER    

     CHECK POINT  END OF SOLVER       

       ELAPSED USER TIME (SEC)      =   7.1400    
       ELAPSED SYSTEM TIME (SEC)    =  0.60000    
       ELAPSED TOTAL CPU TIME (SEC) =   7.7400    
       ELAPSED WALLCLOCK TIME (SEC) =          1

               CONVERGENCE CHECKS FOR EQUILIBRIUM ITERATION     2

   MAX. PENETRATION ERROR 177.337E-06   AT NODE SCALP-1.5131 OF CONTACT PAIR 
   (ASSEMBLY_SURF-SCALP,ASSEMBLY_SURF-SKULL)
          THE CONTACT CONSTRAINTS HAVE CONVERGED.

 AVERAGE FORCE                      6.981E-05   TIME AVG. FORCE       3.804E-05
 LARGEST RESIDUAL FORCE             -2.03       AT NODE       3129   DOF  3
   INSTANCE: SCALP-1                                                                         
 LARGEST INCREMENT OF DISP.         -1.13       AT NODE       6283   DOF  3
   INSTANCE: SCALP-1                                                                         
 LARGEST CORRECTION TO DISP.       -0.179       AT NODE       6241   DOF  3
   INSTANCE: SCALP-1                                                                         
          FORCE     EQUILIBRIUM NOT ACHIEVED WITHIN TOLERANCE.

 AVERAGE MOMENT                     5.047E-03   TIME AVG. MOMENT      5.047E-03
 ALL MOMENT    RESIDUALS ARE ZERO
 LARGEST INCREMENT OF ROTATION     -2.495E-38   AT NODE          1   DOF  6
   INSTANCE: {assembly node}                                                                 
 LARGEST CORRECTION TO ROTATION    -1.484E-38   AT NODE          1   DOF  6
   INSTANCE: {assembly node}                                                                 
          THE MOMENT    EQUILIBRIUM EQUATIONS HAVE CONVERGED

 AVERAGE VOL. FLUX                  1.074E-03   TIME AVG. VOL. FLUX   5.970E-04
 LARGEST RESIDUAL VOL. FLUX         4.548E-04   AT NODE      21518
   INSTANCE: SCALP-1                                                                         
 LARGEST INCREMENT OF PR. LM.       4.069E-03   AT NODE       3617
   INSTANCE: SCALP-1                                                                         
 LARGEST CORRECTION TO PR. LM.     -5.080E-04   AT NODE       3234
   INSTANCE: SCALP-1                                                                         
          VOL. FLUX EQUILIBRIUM NOT ACHIEVED WITHIN TOLERANCE.

  NUMBER OF EQUATIONS =    101602     NUMBER OF RHS =    1
  NUMBER OF FLOATING PT. OPERATIONS =  9.83E+09

  USING THE DIRECT SOLVER WITH  24 PROCESSORS

     CHECK POINT   START OF SOLVER    

     CHECK POINT  END OF SOLVER       

       ELAPSED USER TIME (SEC)      =   5.5000    
       ELAPSED SYSTEM TIME (SEC)    =  0.73000    
       ELAPSED TOTAL CPU TIME (SEC) =   6.2300    
       ELAPSED WALLCLOCK TIME (SEC) =          0

               CONVERGENCE CHECKS FOR EQUILIBRIUM ITERATION     3

   MAX. PENETRATION ERROR 25.5970E-06  AT NODE SCALP-1.5131 OF CONTACT PAIR 
   (ASSEMBLY_SURF-SCALP,ASSEMBLY_SURF-SKULL)
          THE CONTACT CONSTRAINTS HAVE CONVERGED.

 AVERAGE FORCE                      1.910E-05   TIME AVG. FORCE       1.268E-05
 LARGEST RESIDUAL FORCE            -0.104       AT NODE       5131   DOF  2
   INSTANCE: SCALP-1                                                                         
 LARGEST INCREMENT OF DISP.         -1.15       AT NODE       6283   DOF  3
   INSTANCE: SCALP-1                                                                         
 LARGEST CORRECTION TO DISP.       -3.070E-02   AT NODE       5219   DOF  2
   INSTANCE: SCALP-1                                                                         
          FORCE     EQUILIBRIUM NOT ACHIEVED WITHIN TOLERANCE.

 AVERAGE MOMENT                     7.295E-04   TIME AVG. MOMENT      7.295E-04
 ALL MOMENT    RESIDUALS ARE ZERO
 LARGEST INCREMENT OF ROTATION     -3.975E-38   AT NODE          1   DOF  6
   INSTANCE: {assembly node}                                                                 
 LARGEST CORRECTION TO ROTATION    -1.481E-38   AT NODE          1   DOF  6
   INSTANCE: {assembly node}                                                                 
          THE MOMENT    EQUILIBRIUM EQUATIONS HAVE CONVERGED

 AVERAGE VOL. FLUX                  1.074E-03   TIME AVG. VOL. FLUX   5.971E-04
 LARGEST RESIDUAL VOL. FLUX         2.256E-05   AT NODE      21388
   INSTANCE: SCALP-1                                                                         
 LARGEST INCREMENT OF PR. LM.       4.085E-03   AT NODE       3617
   INSTANCE: SCALP-1                                                                         
 LARGEST CORRECTION TO PR. LM.      6.118E-05   AT NODE      24695
   INSTANCE: SCALP-1                                                                         
          VOL. FLUX EQUILIBRIUM NOT ACHIEVED WITHIN TOLERANCE.

  NUMBER OF EQUATIONS =    101602     NUMBER OF RHS =    1
  NUMBER OF FLOATING PT. OPERATIONS =  9.83E+09

  USING THE DIRECT SOLVER WITH  24 PROCESSORS

     CHECK POINT   START OF SOLVER    

     CHECK POINT  END OF SOLVER       

       ELAPSED USER TIME (SEC)      =   7.2400    
       ELAPSED SYSTEM TIME (SEC)    =  0.67000    
       ELAPSED TOTAL CPU TIME (SEC) =   7.9100    
       ELAPSED WALLCLOCK TIME (SEC) =          1

               CONVERGENCE CHECKS FOR EQUILIBRIUM ITERATION     4

   MAX. PENETRATION ERROR 21.0227E-06  AT NODE SCALP-1.5131 OF CONTACT PAIR 
   (ASSEMBLY_SURF-SCALP,ASSEMBLY_SURF-SKULL)
          THE CONTACT CONSTRAINTS HAVE CONVERGED.

 AVERAGE FORCE                      1.888E-05   TIME AVG. FORCE       1.257E-05
 LARGEST RESIDUAL FORCE            -8.505E-02   AT NODE       5131   DOF  2
   INSTANCE: SCALP-1                                                                         
 LARGEST INCREMENT OF DISP.         -1.16       AT NODE       6283   DOF  3
   INSTANCE: SCALP-1                                                                         
 LARGEST CORRECTION TO DISP.        7.588E-03   AT NODE      15105   DOF  2
   INSTANCE: SCALP-1                                                                         
          FORCE     EQUILIBRIUM NOT ACHIEVED WITHIN TOLERANCE.

 AVERAGE MOMENT                     5.993E-04   TIME AVG. MOMENT      5.993E-04
 ALL MOMENT    RESIDUALS ARE ZERO
 LARGEST INCREMENT OF ROTATION     -5.451E-38   AT NODE          1   DOF  6
   INSTANCE: {assembly node}                                                                 
 LARGEST CORRECTION TO ROTATION    -1.476E-38   AT NODE          1   DOF  6
   INSTANCE: {assembly node}                                                                 
          THE MOMENT    EQUILIBRIUM EQUATIONS HAVE CONVERGED

 AVERAGE VOL. FLUX                  1.075E-03   TIME AVG. VOL. FLUX   5.977E-04
 LARGEST RESIDUAL VOL. FLUX         2.490E-06   AT NODE      21451
   INSTANCE: SCALP-1                                                                         
 LARGEST INCREMENT OF PR. LM.       4.086E-03   AT NODE       3617
   INSTANCE: SCALP-1                                                                         
 LARGEST CORRECTION TO PR. LM.     -2.685E-05   AT NODE      15435
   INSTANCE: SCALP-1                                                                         
          THE VOL. FLUX EQUILIBRIUM EQUATIONS HAVE CONVERGED

  NUMBER OF EQUATIONS =    101602     NUMBER OF RHS =    1
  NUMBER OF FLOATING PT. OPERATIONS =  9.83E+09

  USING THE DIRECT SOLVER WITH  24 PROCESSORS

     CHECK POINT   START OF SOLVER    

     CHECK POINT  END OF SOLVER       

       ELAPSED USER TIME (SEC)      =   5.1600    
       ELAPSED SYSTEM TIME (SEC)    =  0.60000    
       ELAPSED TOTAL CPU TIME (SEC) =   5.7600    
       ELAPSED WALLCLOCK TIME (SEC) =          0

               CONVERGENCE CHECKS FOR EQUILIBRIUM ITERATION     5

   MAX. PENETRATION ERROR 2.35055E-06 AT NODE SCALP-1.5131 OF CONTACT PAIR 
   (ASSEMBLY_SURF-SCALP,ASSEMBLY_SURF-SKULL)
          THE CONTACT CONSTRAINTS HAVE CONVERGED.

 AVERAGE FORCE                      1.861E-05   TIME AVG. FORCE       1.244E-05
 LARGEST RESIDUAL FORCE            -9.510E-03   AT NODE       5131   DOF  2
   INSTANCE: SCALP-1                                                                         
 LARGEST INCREMENT OF DISP.         -1.16       AT NODE       6283   DOF  3
   INSTANCE: SCALP-1                                                                         
 LARGEST CORRECTION TO DISP.        4.417E-04   AT NODE       2050   DOF  1
   INSTANCE: SCALP-1                                                                         
          FORCE     EQUILIBRIUM NOT ACHIEVED WITHIN TOLERANCE.

 AVERAGE MOMENT                     6.789E-05   TIME AVG. MOMENT      6.789E-05
 ALL MOMENT    RESIDUALS ARE ZERO
 LARGEST INCREMENT OF ROTATION     -6.927E-38   AT NODE          1   DOF  6
   INSTANCE: {assembly node}                                                                 
 LARGEST CORRECTION TO ROTATION    -1.476E-38   AT NODE          1   DOF  6
   INSTANCE: {assembly node}                                                                 
          THE MOMENT    EQUILIBRIUM EQUATIONS HAVE CONVERGED

 AVERAGE VOL. FLUX                  1.076E-03   TIME AVG. VOL. FLUX   5.978E-04
 LARGEST RESIDUAL VOL. FLUX         3.439E-08   AT NODE       8790
   INSTANCE: SCALP-1                                                                         
 LARGEST INCREMENT OF PR. LM.       4.086E-03   AT NODE       3617
   INSTANCE: SCALP-1                                                                         
 LARGEST CORRECTION TO PR. LM.      3.141E-06   AT NODE      18038
   INSTANCE: SCALP-1                                                                         
          THE VOL. FLUX EQUILIBRIUM EQUATIONS HAVE CONVERGED

  NUMBER OF EQUATIONS =    101602     NUMBER OF RHS =    1
  NUMBER OF FLOATING PT. OPERATIONS =  9.83E+09

  USING THE DIRECT SOLVER WITH  24 PROCESSORS

     CHECK POINT   START OF SOLVER    

     CHECK POINT  END OF SOLVER       

       ELAPSED USER TIME (SEC)      =   3.4000    
       ELAPSED SYSTEM TIME (SEC)    =  0.62000    
       ELAPSED TOTAL CPU TIME (SEC) =   4.0200    
       ELAPSED WALLCLOCK TIME (SEC) =          1

               CONVERGENCE CHECKS FOR EQUILIBRIUM ITERATION     6

   MAX. PENETRATION ERROR 450.643E-09   AT NODE SCALP-1.5131 OF CONTACT PAIR 
   (ASSEMBLY_SURF-SCALP,ASSEMBLY_SURF-SKULL)
          THE CONTACT CONSTRAINTS HAVE CONVERGED.

 AVERAGE FORCE                      1.857E-05   TIME AVG. FORCE       1.242E-05
 LARGEST RESIDUAL FORCE            -1.823E-03   AT NODE       5131   DOF  2
   INSTANCE: SCALP-1                                                                         
 LARGEST INCREMENT OF DISP.         -1.16       AT NODE       6283   DOF  3
   INSTANCE: SCALP-1                                                                         
 LARGEST CORRECTION TO DISP.       -1.350E-04   AT NODE       8874   DOF  3
   INSTANCE: SCALP-1                                                                         
          FORCE     EQUILIBRIUM NOT ACHIEVED WITHIN TOLERANCE.

 AVERAGE MOMENT                     1.381E-05   TIME AVG. MOMENT      1.381E-05
 ALL MOMENT    RESIDUALS ARE ZERO
 LARGEST INCREMENT OF ROTATION     -8.403E-38   AT NODE          1   DOF  6
   INSTANCE: {assembly node}                                                                 
 LARGEST CORRECTION TO ROTATION    -1.476E-38   AT NODE          1   DOF  6
   INSTANCE: {assembly node}                                                                 
          THE MOMENT    EQUILIBRIUM EQUATIONS HAVE CONVERGED

 AVERAGE VOL. FLUX                  1.075E-03   TIME AVG. VOL. FLUX   5.977E-04
 LARGEST RESIDUAL VOL. FLUX         4.322E-09   AT NODE       5223
   INSTANCE: SCALP-1                                                                         
 LARGEST INCREMENT OF PR. LM.       4.086E-03   AT NODE       3617
   INSTANCE: SCALP-1                                                                         
 LARGEST CORRECTION TO PR. LM.      2.671E-06   AT NODE      25355
   INSTANCE: SCALP-1                                                                         
          THE VOL. FLUX EQUILIBRIUM EQUATIONS HAVE CONVERGED

  NUMBER OF EQUATIONS =    101602     NUMBER OF RHS =    1
  NUMBER OF FLOATING PT. OPERATIONS =  9.83E+09

  USING THE DIRECT SOLVER WITH  24 PROCESSORS

     CHECK POINT   START OF SOLVER    

     CHECK POINT  END OF SOLVER       

       ELAPSED USER TIME (SEC)      =   6.6600    
       ELAPSED SYSTEM TIME (SEC)    =  0.54000    
       ELAPSED TOTAL CPU TIME (SEC) =   7.2000    
       ELAPSED WALLCLOCK TIME (SEC) =          1

               CONVERGENCE CHECKS FOR EQUILIBRIUM ITERATION     7

   MAX. PENETRATION ERROR -804.440E-12   AT NODE SCALP-1.5131 OF CONTACT PAIR 
   (ASSEMBLY_SURF-SCALP,ASSEMBLY_SURF-SKULL)
          THE CONTACT CONSTRAINTS HAVE CONVERGED.

 AVERAGE FORCE                      1.857E-05   TIME AVG. FORCE       1.242E-05
 LARGEST RESIDUAL FORCE             3.254E-06   AT NODE       5131   DOF  2
   INSTANCE: SCALP-1                                                                         
 LARGEST INCREMENT OF DISP.         -1.16       AT NODE       6283   DOF  3
   INSTANCE: SCALP-1                                                                         
 LARGEST CORRECTION TO DISP.        3.174E-05   AT NODE       5224   DOF  2
   INSTANCE: SCALP-1                                                                         
          FORCE     EQUILIBRIUM NOT ACHIEVED WITHIN TOLERANCE.

 AVERAGE MOMENT                     9.631E-07   TIME AVG. MOMENT      9.631E-07
 ALL MOMENT    RESIDUALS ARE ZERO
 LARGEST INCREMENT OF ROTATION     -9.878E-38   AT NODE          1   DOF  6
   INSTANCE: {assembly node}                                                                 
 LARGEST CORRECTION TO ROTATION    -1.476E-38   AT NODE          1   DOF  6
   INSTANCE: {assembly node}                                                                 
          THE MOMENT    EQUILIBRIUM EQUATIONS HAVE CONVERGED

 AVERAGE VOL. FLUX                  1.075E-03   TIME AVG. VOL. FLUX   5.977E-04
 LARGEST RESIDUAL VOL. FLUX         9.074E-11   AT NODE      25379
   INSTANCE: SCALP-1                                                                         
 LARGEST INCREMENT OF PR. LM.       4.086E-03   AT NODE       3617
   INSTANCE: SCALP-1                                                                         
 LARGEST CORRECTION TO PR. LM.     -3.485E-07   AT NODE       8410
   INSTANCE: SCALP-1                                                                         
          THE VOL. FLUX EQUILIBRIUM EQUATIONS HAVE CONVERGED

  NUMBER OF EQUATIONS =    101602     NUMBER OF RHS =    1
  NUMBER OF FLOATING PT. OPERATIONS =  9.83E+09

  USING THE DIRECT SOLVER WITH  24 PROCESSORS

     CHECK POINT   START OF SOLVER    

     CHECK POINT  END OF SOLVER       

       ELAPSED USER TIME (SEC)      =   3.0800    
       ELAPSED SYSTEM TIME (SEC)    =  0.58000    
       ELAPSED TOTAL CPU TIME (SEC) =   3.6600    
       ELAPSED WALLCLOCK TIME (SEC) =          0

               CONVERGENCE CHECKS FOR EQUILIBRIUM ITERATION     8

   MAX. PENETRATION ERROR 9.63805E-09 AT NODE SCALP-1.5131 OF CONTACT PAIR 
   (ASSEMBLY_SURF-SCALP,ASSEMBLY_SURF-SKULL)
          THE CONTACT CONSTRAINTS HAVE CONVERGED.

 AVERAGE FORCE                      1.857E-05   TIME AVG. FORCE       1.242E-05
 LARGEST RESIDUAL FORCE            -3.899E-05   AT NODE       5131   DOF  2
   INSTANCE: SCALP-1                                                                         
 LARGEST INCREMENT OF DISP.         -1.16       AT NODE       6283   DOF  3
   INSTANCE: SCALP-1                                                                         
 LARGEST CORRECTION TO DISP.        5.492E-06   AT NODE       5224   DOF  2
   INSTANCE: SCALP-1                                                                         
          FORCE     EQUILIBRIUM NOT ACHIEVED WITHIN TOLERANCE.

 AVERAGE MOMENT                     1.260E-06   TIME AVG. MOMENT      1.260E-06
 ALL MOMENT    RESIDUALS ARE ZERO
 LARGEST INCREMENT OF ROTATION     -1.135E-37   AT NODE          1   DOF  6
   INSTANCE: {assembly node}                                                                 
 LARGEST CORRECTION TO ROTATION    -1.476E-38   AT NODE          1   DOF  6
   INSTANCE: {assembly node}                                                                 
          THE MOMENT    EQUILIBRIUM EQUATIONS HAVE CONVERGED

 AVERAGE VOL. FLUX                  1.075E-03   TIME AVG. VOL. FLUX   5.977E-04
 LARGEST RESIDUAL VOL. FLUX         1.767E-12   AT NODE      21388
   INSTANCE: SCALP-1                                                                         
 LARGEST INCREMENT OF PR. LM.       4.086E-03   AT NODE       3617
   INSTANCE: SCALP-1                                                                         
 LARGEST CORRECTION TO PR. LM.     -3.485E-07   AT NODE       8410
   INSTANCE: SCALP-1                                                                         
          THE VOL. FLUX EQUILIBRIUM EQUATIONS HAVE CONVERGED

  NUMBER OF EQUATIONS =    101602     NUMBER OF RHS =    1
  NUMBER OF FLOATING PT. OPERATIONS =  9.83E+09

  USING THE DIRECT SOLVER WITH  24 PROCESSORS

     CHECK POINT   START OF SOLVER    

     CHECK POINT  END OF SOLVER       

       ELAPSED USER TIME (SEC)      =   3.4600    
       ELAPSED SYSTEM TIME (SEC)    =  0.62000    
       ELAPSED TOTAL CPU TIME (SEC) =   4.0800    
       ELAPSED WALLCLOCK TIME (SEC) =          1

               CONVERGENCE CHECKS FOR EQUILIBRIUM ITERATION     9

   MAX. PENETRATION ERROR 852.548E-12   AT NODE SCALP-1.5131 OF CONTACT PAIR 
   (ASSEMBLY_SURF-SCALP,ASSEMBLY_SURF-SKULL)
          THE CONTACT CONSTRAINTS HAVE CONVERGED.

 AVERAGE FORCE                      1.857E-05   TIME AVG. FORCE       1.242E-05
 LARGEST RESIDUAL FORCE            -3.449E-06   AT NODE       5131   DOF  2
   INSTANCE: SCALP-1                                                                         
 LARGEST INCREMENT OF DISP.         -1.16       AT NODE       6283   DOF  3
   INSTANCE: SCALP-1                                                                         
 LARGEST CORRECTION TO DISP.        1.582E-06   AT NODE       5224   DOF  2
   INSTANCE: SCALP-1                                                                         
          FORCE     EQUILIBRIUM NOT ACHIEVED WITHIN TOLERANCE.

 AVERAGE MOMENT                     1.010E-06   TIME AVG. MOMENT      1.010E-06
 ALL MOMENT    RESIDUALS ARE ZERO
 LARGEST INCREMENT OF ROTATION     -1.283E-37   AT NODE          1   DOF  6
   INSTANCE: {assembly node}                                                                 
 LARGEST CORRECTION TO ROTATION    -1.476E-38   AT NODE          1   DOF  6
   INSTANCE: {assembly node}                                                                 
          THE MOMENT    EQUILIBRIUM EQUATIONS HAVE CONVERGED

 AVERAGE VOL. FLUX                  1.075E-03   TIME AVG. VOL. FLUX   5.977E-04
 LARGEST RESIDUAL VOL. FLUX         1.966E-13   AT NODE      18121
   INSTANCE: SCALP-1                                                                         
 LARGEST INCREMENT OF PR. LM.       4.086E-03   AT NODE       3617
   INSTANCE: SCALP-1                                                                         
 LARGEST CORRECTION TO PR. LM.     -3.485E-07   AT NODE       8410
   INSTANCE: SCALP-1                                                                         
          THE VOL. FLUX EQUILIBRIUM EQUATIONS HAVE CONVERGED

  NUMBER OF EQUATIONS =    101602     NUMBER OF RHS =    1
  NUMBER OF FLOATING PT. OPERATIONS =  9.83E+09

  USING THE DIRECT SOLVER WITH  24 PROCESSORS

     CHECK POINT   START OF SOLVER    

     CHECK POINT  END OF SOLVER       

       ELAPSED USER TIME (SEC)      =   3.1400    
       ELAPSED SYSTEM TIME (SEC)    =  0.77000    
       ELAPSED TOTAL CPU TIME (SEC) =   3.9100    
       ELAPSED WALLCLOCK TIME (SEC) =          1

               CONVERGENCE CHECKS FOR EQUILIBRIUM ITERATION    10

   MAX. PENETRATION ERROR -4.32407E-12 AT NODE SCALP-1.5131 OF CONTACT PAIR 
   (ASSEMBLY_SURF-SCALP,ASSEMBLY_SURF-SKULL)
          THE CONTACT CONSTRAINTS HAVE CONVERGED.

 AVERAGE FORCE                      1.857E-05   TIME AVG. FORCE       1.242E-05
 LARGEST RESIDUAL FORCE             1.749E-08   AT NODE       5131   DOF  2
   INSTANCE: SCALP-1                                                                         
 LARGEST INCREMENT OF DISP.         -1.16       AT NODE       6283   DOF  3
   INSTANCE: SCALP-1                                                                         
 LARGEST CORRECTION TO DISP.       -8.978E-10   AT NODE       1956   DOF  2
   INSTANCE: SCALP-1                                                                         
          THE FORCE     EQUILIBRIUM EQUATIONS HAVE CONVERGED BASED ON ALTERNATIVE
          RESIDUAL CRITERION

 AVERAGE MOMENT                     9.859E-07   TIME AVG. MOMENT      9.859E-07
 ALL MOMENT    RESIDUALS ARE ZERO
 LARGEST INCREMENT OF ROTATION     -1.431E-37   AT NODE          1   DOF  6
   INSTANCE: {assembly node}                                                                 
 LARGEST CORRECTION TO ROTATION    -1.476E-38   AT NODE          1   DOF  6
   INSTANCE: {assembly node}                                                                 
          THE MOMENT    EQUILIBRIUM EQUATIONS HAVE CONVERGED

 AVERAGE VOL. FLUX                  1.075E-03   TIME AVG. VOL. FLUX   5.977E-04
 LARGEST RESIDUAL VOL. FLUX        -6.020E-14   AT NODE      18258
   INSTANCE: SCALP-1                                                                         
 LARGEST INCREMENT OF PR. LM.       4.086E-03   AT NODE       3617
   INSTANCE: SCALP-1                                                                         
 LARGEST CORRECTION TO PR. LM.     -3.485E-07   AT NODE       8410
   INSTANCE: SCALP-1                                                                         
          THE VOL. FLUX EQUILIBRIUM EQUATIONS HAVE CONVERGED

 ITERATION SUMMARY FOR THE INCREMENT:  10 TOTAL ITERATIONS, OF WHICH
   0 ARE SEVERE DISCONTINUITY ITERATIONS AND 10 ARE EQUILIBRIUM ITERATIONS.

 TIME INCREMENT COMPLETED  0.100    ,  FRACTION OF STEP COMPLETED  0.200    
 STEP TIME COMPLETED       0.200    ,  TOTAL TIME COMPLETED        0.200    


  INCREMENT     3 STARTS. ATTEMPT NUMBER  1, TIME INCREMENT  0.100    

  NUMBER OF EQUATIONS =    101602     NUMBER OF RHS =    1
  NUMBER OF FLOATING PT. OPERATIONS =  9.83E+09

  USING THE DIRECT SOLVER WITH  24 PROCESSORS

     CHECK POINT   START OF SOLVER    

     CHECK POINT  END OF SOLVER       

       ELAPSED USER TIME (SEC)      =   6.1800    
       ELAPSED SYSTEM TIME (SEC)    =  0.78000    
       ELAPSED TOTAL CPU TIME (SEC) =   6.9600    
       ELAPSED WALLCLOCK TIME (SEC) =          1

                    5 SEVERE DISCONTINUITIES OCCURRED DURING THIS ITERATION.
                    5 POINTS CHANGED FROM OPEN TO CLOSED

               CONVERGENCE CHECKS FOR SEVERE DISCONTINUITY ITERATION     1

   MAX. PENETRATION ERROR 54.1041E-03  AT NODE SCALP-1.6282 OF CONTACT PAIR 
   (ASSEMBLY_SURF-SCALP,ASSEMBLY_SURF-SKULL)
          PENETRATION ERROR TOO LARGE COMPARED TO DISPLACEMENT INCREMENT.

 AVERAGE FORCE                      5.201E-03   TIME AVG. FORCE       1.742E-03
 LARGEST RESIDUAL FORCE             -373.       AT NODE      21448   DOF  2
   INSTANCE: SCALP-1                                                                         
 LARGEST INCREMENT OF DISP.         -1.19       AT NODE       6283   DOF  3
   INSTANCE: SCALP-1                                                                         
 LARGEST CORRECTION TO DISP.       -0.110       AT NODE      24898   DOF  2
   INSTANCE: SCALP-1                                                                         
          FORCE     EQUILIBRIUM NOT ACHIEVED WITHIN TOLERANCE.
 

 ***WARNING: THE AVERAGE FORCE USED TO ENFORCE CONTACT CONSTRAINTS AT NODE 
             SCALP-1.21448 IS 858.044E+03   TIMES LARGER THAN THE AVERAGE AT 
             THE OTHER NODES IN THE MODEL.

 AVERAGE MOMENT                     1.807E+04   TIME AVG. MOMENT      9.037E+03
 ALL MOMENT    RESIDUALS ARE ZERO
 LARGEST INCREMENT OF ROTATION     -3.979E-39   AT NODE          1   DOF  6
   INSTANCE: {assembly node}                                                                 
 LARGEST CORRECTION TO ROTATION     1.391E-37   AT NODE          1   DOF  6
   INSTANCE: {assembly node}                                                                 
          THE MOMENT    EQUILIBRIUM EQUATIONS HAVE CONVERGED

 AVERAGE VOL. FLUX                  1.690E-03   TIME AVG. VOL. FLUX   9.618E-04
 LARGEST RESIDUAL VOL. FLUX         1.775E-04   AT NODE        102
   INSTANCE: SCALP-1                                                                         
 LARGEST INCREMENT OF PR. LM.       5.584E-03   AT NODE       3617
   INSTANCE: SCALP-1                                                                         
 LARGEST CORRECTION TO PR. LM.      1.498E-03   AT NODE       3617
   INSTANCE: SCALP-1                                                                         
          VOL. FLUX EQUILIBRIUM NOT ACHIEVED WITHIN TOLERANCE.

  NUMBER OF EQUATIONS =    101607     NUMBER OF RHS =    1
  NUMBER OF FLOATING PT. OPERATIONS =  9.84E+09

  USING THE DIRECT SOLVER WITH  24 PROCESSORS

     CHECK POINT   START OF SOLVER    

     CHECK POINT  END OF SOLVER       

       ELAPSED USER TIME (SEC)      =   4.6200    
       ELAPSED SYSTEM TIME (SEC)    =  0.53000    
       ELAPSED TOTAL CPU TIME (SEC) =   5.1500    
       ELAPSED WALLCLOCK TIME (SEC) =          0

                    2 SEVERE DISCONTINUITIES OCCURRED DURING THIS ITERATION.
                    2 POINTS CHANGED FROM CLOSED TO OPEN

               CONVERGENCE CHECKS FOR SEVERE DISCONTINUITY ITERATION     2

   MAX. PENETRATION ERROR -240.777E-06   AT NODE SCALP-1.5131 OF CONTACT PAIR 
   (ASSEMBLY_SURF-SCALP,ASSEMBLY_SURF-SKULL)
   MAX. CONTACT FORCE ERROR -277.584E-06   AT NODE SCALP-1.5127 OF CONTACT PAIR 
   (ASSEMBLY_SURF-SCALP,ASSEMBLY_SURF-SKULL)
          THE ESTIMATED CONTACT FORCE ERROR IS OUTSIDE OF CONVERGENCE TOLERANCES.

 AVERAGE FORCE                      5.094E-05   TIME AVG. FORCE       2.526E-05
 LARGEST RESIDUAL FORCE              4.80       AT NODE      21448   DOF  2
   INSTANCE: SCALP-1                                                                         
 LARGEST INCREMENT OF DISP.         -1.20       AT NODE       6283   DOF  3
   INSTANCE: SCALP-1                                                                         
 LARGEST CORRECTION TO DISP.       -5.619E-02   AT NODE      12262   DOF  2
   INSTANCE: SCALP-1                                                                         
          FORCE     EQUILIBRIUM NOT ACHIEVED WITHIN TOLERANCE.
 

 ***WARNING: THE AVERAGE FORCE USED TO ENFORCE CONTACT CONSTRAINTS AT NODE 
             SCALP-1.21448 IS 17.5175E+03  TIMES LARGER THAN THE AVERAGE AT THE 
             OTHER NODES IN THE MODEL.

 AVERAGE MOMENT                      98.3       TIME AVG. MOMENT       49.2    
 ALL MOMENT    RESIDUALS ARE ZERO
 LARGEST INCREMENT OF ROTATION     -2.746E-38   AT NODE          1   DOF  6
   INSTANCE: {assembly node}                                                                 
 LARGEST CORRECTION TO ROTATION    -2.348E-38   AT NODE          1   DOF  6
   INSTANCE: {assembly node}                                                                 
          THE MOMENT    EQUILIBRIUM EQUATIONS HAVE CONVERGED

 AVERAGE VOL. FLUX                  1.692E-03   TIME AVG. VOL. FLUX   9.625E-04
 LARGEST RESIDUAL VOL. FLUX         3.100E-04   AT NODE      21510
   INSTANCE: SCALP-1                                                                         
 LARGEST INCREMENT OF PR. LM.       5.603E-03   AT NODE       3617
   INSTANCE: SCALP-1                                                                         
 LARGEST CORRECTION TO PR. LM.      1.319E-04   AT NODE       6282
   INSTANCE: SCALP-1                                                                         
          VOL. FLUX EQUILIBRIUM NOT ACHIEVED WITHIN TOLERANCE.

  NUMBER OF EQUATIONS =    101605     NUMBER OF RHS =    1
  NUMBER OF FLOATING PT. OPERATIONS =  9.84E+09

  USING THE DIRECT SOLVER WITH  24 PROCESSORS

     CHECK POINT   START OF SOLVER    

     CHECK POINT  END OF SOLVER       

       ELAPSED USER TIME (SEC)      =   4.8300    
       ELAPSED SYSTEM TIME (SEC)    =  0.65000    
       ELAPSED TOTAL CPU TIME (SEC) =   5.4800    
       ELAPSED WALLCLOCK TIME (SEC) =          1

                    1 SEVERE DISCONTINUITIES OCCURRED DURING THIS ITERATION.
                    1 POINTS CHANGED FROM CLOSED TO OPEN

               CONVERGENCE CHECKS FOR SEVERE DISCONTINUITY ITERATION     3

   MAX. PENETRATION ERROR -424.761E-06   AT NODE SCALP-1.5131 OF CONTACT PAIR 
   (ASSEMBLY_SURF-SCALP,ASSEMBLY_SURF-SKULL)
   MAX. CONTACT FORCE ERROR -170.303E-06   AT NODE SCALP-1.21506 OF CONTACT 
   PAIR (ASSEMBLY_SURF-SCALP,ASSEMBLY_SURF-SKULL)
          THE ESTIMATED CONTACT FORCE ERROR IS OUTSIDE OF CONVERGENCE TOLERANCES.

 AVERAGE FORCE                      5.304E-05   TIME AVG. FORCE       2.596E-05
 LARGEST RESIDUAL FORCE             -4.66       AT NODE      21448   DOF  2
   INSTANCE: SCALP-1                                                                         
 LARGEST INCREMENT OF DISP.         -1.17       AT NODE       6283   DOF  3
   INSTANCE: SCALP-1                                                                         
 LARGEST CORRECTION TO DISP.       -4.878E-02   AT NODE      15101   DOF  2
   INSTANCE: SCALP-1                                                                         
          FORCE     EQUILIBRIUM NOT ACHIEVED WITHIN TOLERANCE.
 

 ***WARNING: THE AVERAGE FORCE USED TO ENFORCE CONTACT CONSTRAINTS AT NODE 
             SCALP-1.21448 IS 25.1933E+03  TIMES LARGER THAN THE AVERAGE AT THE 
             OTHER NODES IN THE MODEL.

 AVERAGE MOMENT                      147.       TIME AVG. MOMENT       73.3    
 ALL MOMENT    RESIDUALS ARE ZERO
 LARGEST INCREMENT OF ROTATION     -5.341E-38   AT NODE          1   DOF  6
   INSTANCE: {assembly node}                                                                 
 LARGEST CORRECTION TO ROTATION    -2.595E-38   AT NODE          1   DOF  6
   INSTANCE: {assembly node}                                                                 
          THE MOMENT    EQUILIBRIUM EQUATIONS HAVE CONVERGED

 AVERAGE VOL. FLUX                  1.684E-03   TIME AVG. VOL. FLUX   9.599E-04
 LARGEST RESIDUAL VOL. FLUX         1.341E-04   AT NODE      21451
   INSTANCE: SCALP-1                                                                         
 LARGEST INCREMENT OF PR. LM.       5.593E-03   AT NODE       3617
   INSTANCE: SCALP-1                                                                         
 LARGEST CORRECTION TO PR. LM.     -8.883E-05   AT NODE      21506
   INSTANCE: SCALP-1                                                                         
          VOL. FLUX EQUILIBRIUM NOT ACHIEVED WITHIN TOLERANCE.

  NUMBER OF EQUATIONS =    101604     NUMBER OF RHS =    1
  NUMBER OF FLOATING PT. OPERATIONS =  9.84E+09

  USING THE DIRECT SOLVER WITH  24 PROCESSORS

     CHECK POINT   START OF SOLVER    

     CHECK POINT  END OF SOLVER       

       ELAPSED USER TIME (SEC)      =   3.6900    
       ELAPSED SYSTEM TIME (SEC)    =  0.55000    
       ELAPSED TOTAL CPU TIME (SEC) =   4.2400    
       ELAPSED WALLCLOCK TIME (SEC) =          0

               CONVERGENCE CHECKS FOR EQUILIBRIUM ITERATION     1

   MAX. PENETRATION ERROR -201.717E-06   AT NODE SCALP-1.5131 OF CONTACT PAIR 
   (ASSEMBLY_SURF-SCALP,ASSEMBLY_SURF-SKULL)
          THE CONTACT CONSTRAINTS HAVE CONVERGED.

 AVERAGE FORCE                      4.380E-05   TIME AVG. FORCE       2.288E-05
 LARGEST RESIDUAL FORCE             -2.75       AT NODE      21448   DOF  2
   INSTANCE: SCALP-1                                                                         
 LARGEST INCREMENT OF DISP.         -1.16       AT NODE       6283   DOF  3
   INSTANCE: SCALP-1                                                                         
 LARGEST CORRECTION TO DISP.       -3.161E-02   AT NODE       3148   DOF  2
   INSTANCE: SCALP-1                                                                         
          FORCE     EQUILIBRIUM NOT ACHIEVED WITHIN TOLERANCE.
 

 ***WARNING: THE AVERAGE FORCE USED TO ENFORCE CONTACT CONSTRAINTS AT NODE 
             SCALP-1.21448 IS 14.0741E+03  TIMES LARGER THAN THE AVERAGE AT THE 
             OTHER NODES IN THE MODEL.

 AVERAGE MOMENT                      81.7       TIME AVG. MOMENT       40.8    
 ALL MOMENT    RESIDUALS ARE ZERO
 LARGEST INCREMENT OF ROTATION     -8.018E-38   AT NODE          1   DOF  6
   INSTANCE: {assembly node}                                                                 
 LARGEST CORRECTION TO ROTATION    -2.677E-38   AT NODE          1   DOF  6
   INSTANCE: {assembly node}                                                                 
          THE MOMENT    EQUILIBRIUM RESPONSE WAS LINEAR IN THIS INCREMENT

 AVERAGE VOL. FLUX                  1.681E-03   TIME AVG. VOL. FLUX   9.586E-04
 LARGEST RESIDUAL VOL. FLUX         3.948E-05   AT NODE      21510
   INSTANCE: SCALP-1                                                                         
 LARGEST INCREMENT OF PR. LM.       5.588E-03   AT NODE       3617
   INSTANCE: SCALP-1                                                                         
 LARGEST CORRECTION TO PR. LM.     -1.011E-04   AT NODE       6282
   INSTANCE: SCALP-1                                                                         
          VOL. FLUX EQUILIBRIUM NOT ACHIEVED WITHIN TOLERANCE.

  NUMBER OF EQUATIONS =    101604     NUMBER OF RHS =    1
  NUMBER OF FLOATING PT. OPERATIONS =  9.84E+09

  USING THE DIRECT SOLVER WITH  24 PROCESSORS

     CHECK POINT   START OF SOLVER    

     CHECK POINT  END OF SOLVER       

       ELAPSED USER TIME (SEC)      =   3.4500    
       ELAPSED SYSTEM TIME (SEC)    =  0.71000    
       ELAPSED TOTAL CPU TIME (SEC) =   4.1600    
       ELAPSED WALLCLOCK TIME (SEC) =          0

               CONVERGENCE CHECKS FOR EQUILIBRIUM ITERATION     2

   MAX. PENETRATION ERROR -4.78417E-06 AT NODE SCALP-1.5131 OF CONTACT PAIR 
   (ASSEMBLY_SURF-SCALP,ASSEMBLY_SURF-SKULL)
          THE CONTACT CONSTRAINTS HAVE CONVERGED.

 AVERAGE FORCE                      3.246E-05   TIME AVG. FORCE       1.910E-05
 LARGEST RESIDUAL FORCE             1.934E-02   AT NODE       5131   DOF  2
   INSTANCE: SCALP-1                                                                         
 LARGEST INCREMENT OF DISP.         -1.16       AT NODE       6283   DOF  3
   INSTANCE: SCALP-1                                                                         
 LARGEST CORRECTION TO DISP.        5.629E-04   AT NODE       3102   DOF  2
   INSTANCE: SCALP-1                                                                         
          FORCE     EQUILIBRIUM NOT ACHIEVED WITHIN TOLERANCE.

 AVERAGE MOMENT                     0.842       TIME AVG. MOMENT      0.421    
 ALL MOMENT    RESIDUALS ARE ZERO
 LARGEST INCREMENT OF ROTATION     -1.069E-37   AT NODE          1   DOF  6
   INSTANCE: {assembly node}                                                                 
 LARGEST CORRECTION TO ROTATION    -2.677E-38   AT NODE          1   DOF  6
   INSTANCE: {assembly node}                                                                 
          THE MOMENT    EQUILIBRIUM EQUATIONS HAVE CONVERGED

 AVERAGE VOL. FLUX                  1.680E-03   TIME AVG. VOL. FLUX   9.586E-04
 LARGEST RESIDUAL VOL. FLUX         5.909E-08   AT NODE      21508
   INSTANCE: SCALP-1                                                                         
 LARGEST INCREMENT OF PR. LM.       5.588E-03   AT NODE       3617
   INSTANCE: SCALP-1                                                                         
 LARGEST CORRECTION TO PR. LM.      1.347E-05   AT NODE      12257
   INSTANCE: SCALP-1                                                                         
          THE VOL. FLUX EQUILIBRIUM EQUATIONS HAVE CONVERGED

  NUMBER OF EQUATIONS =    101604     NUMBER OF RHS =    1
  NUMBER OF FLOATING PT. OPERATIONS =  9.84E+09

  USING THE DIRECT SOLVER WITH  24 PROCESSORS

     CHECK POINT   START OF SOLVER    

     CHECK POINT  END OF SOLVER       

       ELAPSED USER TIME (SEC)      =   6.2400    
       ELAPSED SYSTEM TIME (SEC)    =  0.52000    
       ELAPSED TOTAL CPU TIME (SEC) =   6.7600    
       ELAPSED WALLCLOCK TIME (SEC) =          1

               CONVERGENCE CHECKS FOR EQUILIBRIUM ITERATION     3

   MAX. PENETRATION ERROR -472.895E-09   AT NODE SCALP-1.5131 OF CONTACT PAIR 
   (ASSEMBLY_SURF-SCALP,ASSEMBLY_SURF-SKULL)
          THE CONTACT CONSTRAINTS HAVE CONVERGED.

 AVERAGE FORCE                      3.237E-05   TIME AVG. FORCE       1.907E-05
 LARGEST RESIDUAL FORCE            -3.372E-03   AT NODE      21448   DOF  2
   INSTANCE: SCALP-1                                                                         
 LARGEST INCREMENT OF DISP.         -1.16       AT NODE       6283   DOF  3
   INSTANCE: SCALP-1                                                                         
 LARGEST CORRECTION TO DISP.       -1.559E-04   AT NODE       3109   DOF  3
   INSTANCE: SCALP-1                                                                         
          FORCE     EQUILIBRIUM NOT ACHIEVED WITHIN TOLERANCE.

 AVERAGE MOMENT                     0.121       TIME AVG. MOMENT      6.062E-02
 ALL MOMENT    RESIDUALS ARE ZERO
 LARGEST INCREMENT OF ROTATION     -1.337E-37   AT NODE          1   DOF  6
   INSTANCE: {assembly node}                                                                 
 LARGEST CORRECTION TO ROTATION    -2.677E-38   AT NODE          1   DOF  6
   INSTANCE: {assembly node}                                                                 
          THE MOMENT    EQUILIBRIUM EQUATIONS HAVE CONVERGED

 AVERAGE VOL. FLUX                  1.680E-03   TIME AVG. VOL. FLUX   9.586E-04
 LARGEST RESIDUAL VOL. FLUX         3.195E-09   AT NODE      25300
   INSTANCE: SCALP-1                                                                         
 LARGEST INCREMENT OF PR. LM.       5.588E-03   AT NODE       3617
   INSTANCE: SCALP-1                                                                         
 LARGEST CORRECTION TO PR. LM.     -1.131E-06   AT NODE      12262
   INSTANCE: SCALP-1                                                                         
          THE VOL. FLUX EQUILIBRIUM EQUATIONS HAVE CONVERGED

  NUMBER OF EQUATIONS =    101604     NUMBER OF RHS =    1
  NUMBER OF FLOATING PT. OPERATIONS =  9.84E+09

  USING THE DIRECT SOLVER WITH  24 PROCESSORS

     CHECK POINT   START OF SOLVER    

     CHECK POINT  END OF SOLVER       

       ELAPSED USER TIME (SEC)      =   3.3100    
       ELAPSED SYSTEM TIME (SEC)    =  0.60000    
       ELAPSED TOTAL CPU TIME (SEC) =   3.9100    
       ELAPSED WALLCLOCK TIME (SEC) =          0

               CONVERGENCE CHECKS FOR EQUILIBRIUM ITERATION     4

   MAX. PENETRATION ERROR -21.3792E-09  AT NODE SCALP-1.5131 OF CONTACT PAIR 
   (ASSEMBLY_SURF-SCALP,ASSEMBLY_SURF-SKULL)
          THE CONTACT CONSTRAINTS HAVE CONVERGED.

 AVERAGE FORCE                      3.236E-05   TIME AVG. FORCE       1.907E-05
[...]

  NUMBER OF EQUATIONS =    101946     NUMBER OF RHS =    1
  NUMBER OF FLOATING PT. OPERATIONS =  1.07E+10

  USING THE DIRECT SOLVER WITH  24 PROCESSORS

     CHECK POINT   START OF SOLVER    

     CHECK POINT  END OF SOLVER       

       ELAPSED USER TIME (SEC)      =   4.0100    
       ELAPSED SYSTEM TIME (SEC)    =  0.67000    
       ELAPSED TOTAL CPU TIME (SEC) =   4.6800    
       ELAPSED WALLCLOCK TIME (SEC) =          1

               CONVERGENCE CHECKS FOR EQUILIBRIUM ITERATION     3

   MAX. PENETRATION ERROR 5.75580E-09 AT NODE SCALP-1.24598 OF CONTACT PAIR 
   (ASSEMBLY_SURF-SCALP,ASSEMBLY_SURF-SKULL)
          THE CONTACT CONSTRAINTS HAVE CONVERGED.

 AVERAGE FORCE                      0.527       TIME AVG. FORCE       9.828E-02
 LARGEST RESIDUAL FORCE            -1.048E-04   AT NODE      24448   DOF  2
   INSTANCE: SCALP-1                                                                         
 LARGEST INCREMENT OF DISP.         0.706       AT NODE       6316   DOF  3
   INSTANCE: SCALP-1                                                                         
 LARGEST CORRECTION TO DISP.        1.203E-06   AT NODE       3421   DOF  2
   INSTANCE: SCALP-1                                                                         
          THE FORCE     EQUILIBRIUM EQUATIONS HAVE CONVERGED

 AVERAGE MOMENT                      119.       TIME AVG. MOMENT       26.8    
 ALL MOMENT    RESIDUALS ARE ZERO
 LARGEST INCREMENT OF ROTATION      6.798E-33   AT NODE          1   DOF  4
   INSTANCE: {assembly node}                                                                 
 LARGEST CORRECTION TO ROTATION     4.508E-32   AT NODE          1   DOF  4
   INSTANCE: {assembly node}                                                                 
          THE MOMENT    EQUILIBRIUM EQUATIONS HAVE CONVERGED

 AVERAGE VOL. FLUX                  5.456E-02   TIME AVG. VOL. FLUX   2.957E-02
 LARGEST RESIDUAL VOL. FLUX         5.507E-13   AT NODE       3421
   INSTANCE: SCALP-1                                                                         
 LARGEST INCREMENT OF PR. LM.       -8.78       AT NODE      19662
   INSTANCE: SCALP-1                                                                         
 LARGEST CORRECTION TO PR. LM.     -3.731E-06   AT NODE      15886
   INSTANCE: SCALP-1                                                                         
          THE VOL. FLUX EQUILIBRIUM EQUATIONS HAVE CONVERGED

 ITERATION SUMMARY FOR THE INCREMENT:   4 TOTAL ITERATIONS, OF WHICH
   1 ARE SEVERE DISCONTINUITY ITERATIONS AND  3 ARE EQUILIBRIUM ITERATIONS.

 TIME INCREMENT COMPLETED  1.000E-02,  FRACTION OF STEP COMPLETED  0.990    
 STEP TIME COMPLETED       0.990    ,  TOTAL TIME COMPLETED         1.99    


  INCREMENT   100 STARTS. ATTEMPT NUMBER  1, TIME INCREMENT  1.000E-02

  NUMBER OF EQUATIONS =    101946     NUMBER OF RHS =    1
  NUMBER OF FLOATING PT. OPERATIONS =  1.07E+10

  USING THE DIRECT SOLVER WITH  24 PROCESSORS

     CHECK POINT   START OF SOLVER    

     CHECK POINT  END OF SOLVER       

       ELAPSED USER TIME (SEC)      =   3.1200    
       ELAPSED SYSTEM TIME (SEC)    =  0.66000    
       ELAPSED TOTAL CPU TIME (SEC) =   3.7800    
       ELAPSED WALLCLOCK TIME (SEC) =          0

                   14 SEVERE DISCONTINUITIES OCCURRED DURING THIS ITERATION.
                   10 POINTS CHANGED FROM OPEN TO CLOSED
                    4 POINTS CHANGED FROM CLOSED TO OPEN

               CONVERGENCE CHECKS FOR SEVERE DISCONTINUITY ITERATION     1

   MAX. PENETRATION ERROR 30.9123E-03  AT NODE SCALP-1.24266 OF CONTACT PAIR 
   (ASSEMBLY_SURF-SCALP,ASSEMBLY_SURF-SKULL)
   MAX. CONTACT FORCE ERROR -751.276E-03   AT NODE SCALP-1.3322 OF CONTACT PAIR 
   (ASSEMBLY_SURF-SCALP,ASSEMBLY_SURF-SKULL)
          PENETRATION ERROR TOO LARGE COMPARED TO DISPLACEMENT INCREMENT.

 AVERAGE FORCE                      0.560       TIME AVG. FORCE       0.103    
 LARGEST RESIDUAL FORCE             -515.       AT NODE      24266   DOF  2
   INSTANCE: SCALP-1                                                                         
 LARGEST INCREMENT OF DISP.         0.721       AT NODE       6316   DOF  3
   INSTANCE: SCALP-1                                                                         
 LARGEST CORRECTION TO DISP.        0.122       AT NODE      25337   DOF  3
   INSTANCE: SCALP-1                                                                         
          FORCE     EQUILIBRIUM NOT ACHIEVED WITHIN TOLERANCE.

 AVERAGE MOMENT                      470.       TIME AVG. MOMENT       31.2    
 ALL MOMENT    RESIDUALS ARE ZERO
 LARGEST INCREMENT OF ROTATION     -1.335E-31   AT NODE          1   DOF  4
   INSTANCE: {assembly node}                                                                 
 LARGEST CORRECTION TO ROTATION    -1.403E-31   AT NODE          1   DOF  4
   INSTANCE: {assembly node}                                                                 
          THE MOMENT    EQUILIBRIUM EQUATIONS HAVE CONVERGED

 AVERAGE VOL. FLUX                  5.528E-02   TIME AVG. VOL. FLUX   2.983E-02
 LARGEST RESIDUAL VOL. FLUX         4.663E-03   AT NODE      14991
   INSTANCE: SCALP-1                                                                         
 LARGEST INCREMENT OF PR. LM.       -8.91       AT NODE      19662
   INSTANCE: SCALP-1                                                                         
 LARGEST CORRECTION TO PR. LM.     -0.213       AT NODE      16225
   INSTANCE: SCALP-1                                                                         
          VOL. FLUX EQUILIBRIUM NOT ACHIEVED WITHIN TOLERANCE.

  NUMBER OF EQUATIONS =    101952     NUMBER OF RHS =    1
  NUMBER OF FLOATING PT. OPERATIONS =  1.07E+10

  USING THE DIRECT SOLVER WITH  24 PROCESSORS

     CHECK POINT   START OF SOLVER    

     CHECK POINT  END OF SOLVER       

       ELAPSED USER TIME (SEC)      =   4.7100    
       ELAPSED SYSTEM TIME (SEC)    =  0.64000    
       ELAPSED TOTAL CPU TIME (SEC) =   5.3500    
       ELAPSED WALLCLOCK TIME (SEC) =          1

                    1 SEVERE DISCONTINUITIES OCCURRED DURING THIS ITERATION.
                    1 POINTS CHANGED FROM OPEN TO CLOSED

               CONVERGENCE CHECKS FOR SEVERE DISCONTINUITY ITERATION     2

   MAX. PENETRATION ERROR -76.1004E-06  AT NODE SCALP-1.24323 OF CONTACT PAIR 
   (ASSEMBLY_SURF-SCALP,ASSEMBLY_SURF-SKULL)
          THE CONTACT CONSTRAINT ERRORS ARE WITHIN THE TOLERANCES.

 AVERAGE FORCE                      0.550       TIME AVG. FORCE       0.103    
 LARGEST RESIDUAL FORCE             -9.17       AT NODE       3143   DOF  1
   INSTANCE: SCALP-1                                                                         
 LARGEST INCREMENT OF DISP.         0.751       AT NODE       6316   DOF  3
   INSTANCE: SCALP-1                                                                         
 LARGEST CORRECTION TO DISP.       -4.571E-02   AT NODE       3034   DOF  2
   INSTANCE: SCALP-1                                                                         
          FORCE     EQUILIBRIUM NOT ACHIEVED WITHIN TOLERANCE.

 AVERAGE MOMENT                      122.       TIME AVG. MOMENT       27.7    
 ALL MOMENT    RESIDUALS ARE ZERO
 LARGEST INCREMENT OF ROTATION     -8.672E-32   AT NODE          1   DOF  4
   INSTANCE: {assembly node}                                                                 
 LARGEST CORRECTION TO ROTATION     4.680E-32   AT NODE          1   DOF  4
   INSTANCE: {assembly node}                                                                 
          THE MOMENT    EQUILIBRIUM EQUATIONS HAVE CONVERGED

 AVERAGE VOL. FLUX                  5.529E-02   TIME AVG. VOL. FLUX   2.983E-02
 LARGEST RESIDUAL VOL. FLUX         3.255E-04   AT NODE      19403
   INSTANCE: SCALP-1                                                                         
 LARGEST INCREMENT OF PR. LM.       -8.92       AT NODE      19662
   INSTANCE: SCALP-1                                                                         
 LARGEST CORRECTION TO PR. LM.      0.123       AT NODE      24266
   INSTANCE: SCALP-1                                                                         
          VOL. FLUX EQUILIBRIUM NOT ACHIEVED WITHIN TOLERANCE.

  NUMBER OF EQUATIONS =    101953     NUMBER OF RHS =    1
  NUMBER OF FLOATING PT. OPERATIONS =  1.07E+10

  USING THE DIRECT SOLVER WITH  24 PROCESSORS

     CHECK POINT   START OF SOLVER    

     CHECK POINT  END OF SOLVER       

       ELAPSED USER TIME (SEC)      =   4.2000    
       ELAPSED SYSTEM TIME (SEC)    =  0.64000    
       ELAPSED TOTAL CPU TIME (SEC) =   4.8400    
       ELAPSED WALLCLOCK TIME (SEC) =          0

                    1 SEVERE DISCONTINUITIES OCCURRED DURING THIS ITERATION.
                    1 POINTS CHANGED FROM CLOSED TO OPEN

               CONVERGENCE CHECKS FOR SEVERE DISCONTINUITY ITERATION     3

   MAX. PENETRATION ERROR 10.4847E-06  AT NODE SCALP-1.3421 OF CONTACT PAIR 
   (ASSEMBLY_SURF-SCALP,ASSEMBLY_SURF-SKULL)
   MAX. CONTACT FORCE ERROR -22.7508E-06  AT NODE SCALP-1.15682 OF CONTACT PAIR 
   (ASSEMBLY_SURF-SCALP,ASSEMBLY_SURF-SKULL)
          THE CONTACT CONSTRAINT ERRORS ARE WITHIN THE TOLERANCES.

 AVERAGE FORCE                      0.550       TIME AVG. FORCE       0.103    
 LARGEST RESIDUAL FORCE             -4.53       AT NODE       3143   DOF  1
   INSTANCE: SCALP-1                                                                         
 LARGEST INCREMENT OF DISP.         0.754       AT NODE       6316   DOF  3
   INSTANCE: SCALP-1                                                                         
 LARGEST CORRECTION TO DISP.        2.113E-02   AT NODE       3034   DOF  3
   INSTANCE: SCALP-1                                                                         
          FORCE     EQUILIBRIUM NOT ACHIEVED WITHIN TOLERANCE.

 AVERAGE MOMENT                      121.       TIME AVG. MOMENT       27.7    
 ALL MOMENT    RESIDUALS ARE ZERO
 LARGEST INCREMENT OF ROTATION     -3.991E-32   AT NODE          1   DOF  4
   INSTANCE: {assembly node}                                                                 
 LARGEST CORRECTION TO ROTATION     4.680E-32   AT NODE          1   DOF  4
   INSTANCE: {assembly node}                                                                 
          THE MOMENT    EQUILIBRIUM EQUATIONS HAVE CONVERGED

 AVERAGE VOL. FLUX                  5.529E-02   TIME AVG. VOL. FLUX   2.983E-02
 LARGEST RESIDUAL VOL. FLUX         5.743E-05   AT NODE      19403
   INSTANCE: SCALP-1                                                                         
 LARGEST INCREMENT OF PR. LM.       -8.92       AT NODE      19662
   INSTANCE: SCALP-1                                                                         
 LARGEST CORRECTION TO PR. LM.     -1.930E-03   AT NODE      14946
   INSTANCE: SCALP-1                                                                         
          THE VOL. FLUX EQUILIBRIUM EQUATIONS HAVE CONVERGED

  NUMBER OF EQUATIONS =    101952     NUMBER OF RHS =    1
  NUMBER OF FLOATING PT. OPERATIONS =  1.07E+10

  USING THE DIRECT SOLVER WITH  24 PROCESSORS

     CHECK POINT   START OF SOLVER    

     CHECK POINT  END OF SOLVER       

       ELAPSED USER TIME (SEC)      =   4.5200    
       ELAPSED SYSTEM TIME (SEC)    =  0.62000    
       ELAPSED TOTAL CPU TIME (SEC) =   5.1400    
       ELAPSED WALLCLOCK TIME (SEC) =          1

               CONVERGENCE CHECKS FOR EQUILIBRIUM ITERATION     1

   MAX. PENETRATION ERROR -2.58858E-06 AT NODE SCALP-1.24323 OF CONTACT PAIR 
   (ASSEMBLY_SURF-SCALP,ASSEMBLY_SURF-SKULL)
          THE CONTACT CONSTRAINTS HAVE CONVERGED.

 AVERAGE FORCE                      0.550       TIME AVG. FORCE       0.103    
 LARGEST RESIDUAL FORCE             4.738E-02   AT NODE      24323   DOF  2
   INSTANCE: SCALP-1                                                                         
 LARGEST INCREMENT OF DISP.         0.756       AT NODE       6316   DOF  3
   INSTANCE: SCALP-1                                                                         
 LARGEST CORRECTION TO DISP.       -2.694E-03   AT NODE       3034   DOF  2
   INSTANCE: SCALP-1                                                                         
          FORCE     EQUILIBRIUM NOT ACHIEVED WITHIN TOLERANCE.

 AVERAGE MOMENT                      121.       TIME AVG. MOMENT       27.7    
 ALL MOMENT    RESIDUALS ARE ZERO
 LARGEST INCREMENT OF ROTATION      6.887E-33   AT NODE          1   DOF  4
   INSTANCE: {assembly node}                                                                 
 LARGEST CORRECTION TO ROTATION     4.680E-32   AT NODE          1   DOF  4
   INSTANCE: {assembly node}                                                                 
          THE MOMENT    EQUILIBRIUM RESPONSE WAS LINEAR IN THIS INCREMENT

 AVERAGE VOL. FLUX                  5.529E-02   TIME AVG. VOL. FLUX   2.983E-02
 LARGEST RESIDUAL VOL. FLUX         1.132E-06   AT NODE      25332
   INSTANCE: SCALP-1                                                                         
 LARGEST INCREMENT OF PR. LM.       -8.92       AT NODE      19662
   INSTANCE: SCALP-1                                                                         
 LARGEST CORRECTION TO PR. LM.     -5.010E-04   AT NODE      15981
   INSTANCE: SCALP-1                                                                         
          THE VOL. FLUX EQUILIBRIUM EQUATIONS HAVE CONVERGED

  NUMBER OF EQUATIONS =    101952     NUMBER OF RHS =    1
  NUMBER OF FLOATING PT. OPERATIONS =  1.07E+10

  USING THE DIRECT SOLVER WITH  24 PROCESSORS

     CHECK POINT   START OF SOLVER    

     CHECK POINT  END OF SOLVER       

       ELAPSED USER TIME (SEC)      =   4.1500    
       ELAPSED SYSTEM TIME (SEC)    =  0.64000    
       ELAPSED TOTAL CPU TIME (SEC) =   4.7900    
       ELAPSED WALLCLOCK TIME (SEC) =          1

               CONVERGENCE CHECKS FOR EQUILIBRIUM ITERATION     2

   MAX. PENETRATION ERROR 89.4042E-09  AT NODE SCALP-1.3421 OF CONTACT PAIR 
   (ASSEMBLY_SURF-SCALP,ASSEMBLY_SURF-SKULL)
          THE CONTACT CONSTRAINTS HAVE CONVERGED.

 AVERAGE FORCE                      0.550       TIME AVG. FORCE       0.103    
 LARGEST RESIDUAL FORCE            -1.511E-03   AT NODE       3421   DOF  2
   INSTANCE: SCALP-1                                                                         
 LARGEST INCREMENT OF DISP.         0.756       AT NODE       6316   DOF  3
   INSTANCE: SCALP-1                                                                         
 LARGEST CORRECTION TO DISP.        1.902E-04   AT NODE       3034   DOF  3
   INSTANCE: SCALP-1                                                                         
          FORCE     EQUILIBRIUM NOT ACHIEVED WITHIN TOLERANCE.

 AVERAGE MOMENT                      121.       TIME AVG. MOMENT       27.7    
 ALL MOMENT    RESIDUALS ARE ZERO
 LARGEST INCREMENT OF ROTATION      5.369E-32   AT NODE          1   DOF  4
   INSTANCE: {assembly node}                                                                 
 LARGEST CORRECTION TO ROTATION     4.680E-32   AT NODE          1   DOF  4
   INSTANCE: {assembly node}                                                                 
          THE MOMENT    EQUILIBRIUM EQUATIONS HAVE CONVERGED

 AVERAGE VOL. FLUX                  5.529E-02   TIME AVG. VOL. FLUX   2.983E-02
 LARGEST RESIDUAL VOL. FLUX         4.466E-09   AT NODE      19403
   INSTANCE: SCALP-1                                                                         
 LARGEST INCREMENT OF PR. LM.       -8.92       AT NODE      19662
   INSTANCE: SCALP-1                                                                         
 LARGEST CORRECTION TO PR. LM.     -1.617E-05   AT NODE      14946
   INSTANCE: SCALP-1                                                                         
          THE VOL. FLUX EQUILIBRIUM EQUATIONS HAVE CONVERGED

  NUMBER OF EQUATIONS =    101952     NUMBER OF RHS =    1
  NUMBER OF FLOATING PT. OPERATIONS =  1.07E+10

  USING THE DIRECT SOLVER WITH  24 PROCESSORS

     CHECK POINT   START OF SOLVER    

     CHECK POINT  END OF SOLVER       

       ELAPSED USER TIME (SEC)      =   5.9300    
       ELAPSED SYSTEM TIME (SEC)    =  0.66000    
       ELAPSED TOTAL CPU TIME (SEC) =   6.5900    
       ELAPSED WALLCLOCK TIME (SEC) =          0

               CONVERGENCE CHECKS FOR EQUILIBRIUM ITERATION     3

   MAX. PENETRATION ERROR -207.560E-12   AT NODE SCALP-1.24323 OF CONTACT PAIR 
   (ASSEMBLY_SURF-SCALP,ASSEMBLY_SURF-SKULL)
          THE CONTACT CONSTRAINTS HAVE CONVERGED.

 AVERAGE FORCE                      0.550       TIME AVG. FORCE       0.103    
 LARGEST RESIDUAL FORCE             3.799E-06   AT NODE      24323   DOF  2
   INSTANCE: SCALP-1                                                                         
 LARGEST INCREMENT OF DISP.         0.756       AT NODE       6316   DOF  3
   INSTANCE: SCALP-1                                                                         
 LARGEST CORRECTION TO DISP.       -2.411E-07   AT NODE       3034   DOF  2
   INSTANCE: SCALP-1                                                                         
          THE FORCE     EQUILIBRIUM EQUATIONS HAVE CONVERGED

 AVERAGE MOMENT                      121.       TIME AVG. MOMENT       27.7    
 ALL MOMENT    RESIDUALS ARE ZERO
 LARGEST INCREMENT OF ROTATION      1.005E-31   AT NODE          1   DOF  4
   INSTANCE: {assembly node}                                                                 
 LARGEST CORRECTION TO ROTATION     4.680E-32   AT NODE          1   DOF  4
   INSTANCE: {assembly node}                                                                 
          THE MOMENT    EQUILIBRIUM EQUATIONS HAVE CONVERGED

 AVERAGE VOL. FLUX                  5.529E-02   TIME AVG. VOL. FLUX   2.983E-02
 LARGEST RESIDUAL VOL. FLUX         1.530E-13   AT NODE      24222
   INSTANCE: SCALP-1                                                                         
 LARGEST INCREMENT OF PR. LM.       -8.92       AT NODE      19662
   INSTANCE: SCALP-1                                                                         
 LARGEST CORRECTION TO PR. LM.     -3.485E-07   AT NODE       8410
   INSTANCE: SCALP-1                                                                         
          THE VOL. FLUX EQUILIBRIUM EQUATIONS HAVE CONVERGED

 ITERATION SUMMARY FOR THE INCREMENT:   6 TOTAL ITERATIONS, OF WHICH
   3 ARE SEVERE DISCONTINUITY ITERATIONS AND  3 ARE EQUILIBRIUM ITERATIONS.

 TIME INCREMENT COMPLETED  1.000E-02,  FRACTION OF STEP COMPLETED   1.00    
 STEP TIME COMPLETED        1.00    ,  TOTAL TIME COMPLETED         2.00    


          THE ANALYSIS HAS BEEN COMPLETED



     ANALYSIS SUMMARY:
     TOTAL OF        119  INCREMENTS
                       1  CUTBACKS IN AUTOMATIC INCREMENTATION
                     660  ITERATIONS INCLUDING CONTACT ITERATIONS IF PRESENT
                     660  PASSES THROUGH THE EQUATION SOLVER OF WHICH 
                     660  INVOLVE MATRIX DECOMPOSITION, INCLUDING
                       0  DECOMPOSITION(S) OF THE MASS MATRIX
                       1  REORDERING OF EQUATIONS TO MINIMIZE WAVEFRONT
                       0  ADDITIONAL RESIDUAL EVALUATIONS FOR LINE SEARCHES
                       0  ADDITIONAL OPERATOR EVALUATIONS FOR LINE SEARCHES
                      16  WARNING MESSAGES DURING USER INPUT PROCESSING
                      44  WARNING MESSAGES DURING ANALYSIS
                       0  ANALYSIS WARNINGS ARE NUMERICAL PROBLEM MESSAGES
                       0  ANALYSIS WARNINGS ARE NEGATIVE EIGENVALUE MESSAGES
                       0  ERROR MESSAGES



     JOB TIME SUMMARY
       USER TIME (SEC)      =   11467.    
       SYSTEM TIME (SEC)    =   1373.1    
       TOTAL CPU TIME (SEC) =   12840.    
       WALLCLOCK TIME (SEC) =       1838
