 Abaqus/Standard 2020                  DATE 22-Jan-2022 TIME 09:45:39
 SUMMARY OF JOB INFORMATION:
 STEP  INC ATT SEVERE EQUIL TOTAL  TOTAL      STEP       INC OF       DOF    IF
               DISCON ITERS ITERS  TIME/    TIME/LPF    TIME/LPF    MONITOR RIKS
               ITERS               FREQ
   1     1   1     4     7    11  0.100      0.100      0.1000    
   1     2   1     0    10    10  0.200      0.200      0.1000    
   1     3   1     3     6     9  0.300      0.300      0.1000    
   1     4   1     4     7    11  0.400      0.400      0.1000    
   1     5   1     1     6     7  0.500      0.500      0.1000    
   1     6   1     5     7    12  0.600      0.600      0.1000    
   1     7   1     1     8     9  0.700      0.700      0.1000    
   1     8   1U    1     1     2  0.700      0.700      0.1000    
   1     8   2     3     6     9  0.725      0.725      0.02500   
   1     9   1     0     5     5  0.750      0.750      0.02500   
   1    10   1     0     5     5  0.775      0.775      0.02500   
   1    11   1     0     5     5  0.800      0.800      0.02500   
   1    12   1     0     5     5  0.825      0.825      0.02500   
   1    13   1     1     4     5  0.850      0.850      0.02500   
   1    14   1     0     5     5  0.875      0.875      0.02500   
   1    15   1     0     5     5  0.900      0.900      0.02500   
   1    16   1     0     5     5  0.925      0.925      0.02500   
   1    17   1     0     5     5  0.950      0.950      0.02500   
   1    18   1     1     6     7  0.975      0.975      0.02500   
   1    19   1     1     8     9  1.00       1.00       0.02500   
   2     1   1     3     6     9  1.01       0.0100     0.01000   
   2     2   1     1     5     6  1.02       0.0200     0.01000   
   2     3   1     2     5     7  1.03       0.0300     0.01000   
   2     4   1     2     5     7  1.04       0.0400     0.01000   
   2     5   1     4     4     8  1.05       0.0500     0.01000   
   2     6   1     2     5     7  1.06       0.0600     0.01000   
   2     7   1     3     4     7  1.07       0.0700     0.01000   
   2     8   1     2     4     6  1.08       0.0800     0.01000   
   2     9   1     2     4     6  1.09       0.0900     0.01000   
   2    10   1     1     4     5  1.10       0.100      0.01000   
   2    11   1     1     4     5  1.11       0.110      0.01000   
   2    12   1     2     3     5  1.12       0.120      0.01000   
   2    13   1     2     4     6  1.13       0.130      0.01000   
   2    14   1     2     5     7  1.14       0.140      0.01000   
   2    15   1     3     3     6  1.15       0.150      0.01000   
   2    16   1     3     4     7  1.16       0.160      0.01000   
   2    17   1     1     4     5  1.17       0.170      0.01000   
   2    18   1     2     4     6  1.18       0.180      0.01000   
   2    19   1     2     5     7  1.19       0.190      0.01000   
   2    20   1     2     4     6  1.20       0.200      0.01000   
   2    21   1     2     3     5  1.21       0.210      0.01000   
   2    22   1     2     3     5  1.22       0.220      0.01000   
   2    23   1     1     4     5  1.23       0.230      0.01000   
   2    24   1     2     4     6  1.24       0.240      0.01000   
   2    25   1     2     4     6  1.25       0.250      0.01000   
   2    26   1     2     3     5  1.26       0.260      0.01000   
   2    27   1     2     3     5  1.27       0.270      0.01000   
   2    28   1     3     3     6  1.28       0.280      0.01000   
   2    29   1     2     3     5  1.29       0.290      0.01000   
   2    30   1     2     3     5  1.30       0.300      0.01000   
   2    31   1     2     3     5  1.31       0.310      0.01000   
   2    32   1     2     3     5  1.32       0.320      0.01000   
   2    33   1     2     4     6  1.33       0.330      0.01000   
   2    34   1     1     4     5  1.34       0.340      0.01000   
   2    35   1     2     3     5  1.35       0.350      0.01000   
   2    36   1     2     3     5  1.36       0.360      0.01000   
   2    37   1     2     3     5  1.37       0.370      0.01000   
   2    38   1     2     3     5  1.38       0.380      0.01000   
   2    39   1     2     3     5  1.39       0.390      0.01000   
   2    40   1     2     3     5  1.40       0.400      0.01000   
   2    41   1     2     3     5  1.41       0.410      0.01000   
   2    42   1     1     4     5  1.42       0.420      0.01000   
   2    43   1     2     3     5  1.43       0.430      0.01000   
   2    44   1     1     4     5  1.44       0.440      0.01000   
   2    45   1     2     3     5  1.45       0.450      0.01000   
   2    46   1     2     3     5  1.46       0.460      0.01000   
   2    47   1     1     4     5  1.47       0.470      0.01000   
   2    48   1     1     4     5  1.48       0.480      0.01000   
   2    49   1     1     4     5  1.49       0.490      0.01000   
   2    50   1     2     3     5  1.50       0.500      0.01000   
   2    51   1     3     2     5  1.51       0.510      0.01000   
   2    52   1     2     3     5  1.52       0.520      0.01000   
   2    53   1     2     3     5  1.53       0.530      0.01000   
   2    54   1     2     3     5  1.54       0.540      0.01000   
   2    55   1     2     4     6  1.55       0.550      0.01000   
   2    56   1     2     3     5  1.56       0.560      0.01000   
   2    57   1     2     3     5  1.57       0.570      0.01000   
   2    58   1     2     3     5  1.58       0.580      0.01000   
   2    59   1     2     3     5  1.59       0.590      0.01000   
   2    60   1     2     3     5  1.60       0.600      0.01000   
   2    61   1     2     3     5  1.61       0.610      0.01000   
   2    62   1     2     3     5  1.62       0.620      0.01000   
   2    63   1     2     3     5  1.63       0.630      0.01000   
   2    64   1     2     3     5  1.64       0.640      0.01000   
   2    65   1     2     3     5  1.65       0.650      0.01000   
   2    66   1     2     3     5  1.66       0.660      0.01000   
   2    67   1     2     3     5  1.67       0.670      0.01000   
   2    68   1     2     3     5  1.68       0.680      0.01000   
   2    69   1     2     3     5  1.69       0.690      0.01000   
   2    70   1     2     3     5  1.70       0.700      0.01000   
   2    71   1     2     3     5  1.71       0.710      0.01000   
   2    72   1     2     2     4  1.72       0.720      0.01000   
   2    73   1     2     4     6  1.73       0.730      0.01000   
   2    74   1     2     3     5  1.74       0.740      0.01000   
   2    75   1     1     3     4  1.75       0.750      0.01000   
   2    76   1     2     3     5  1.76       0.760      0.01000   
   2    77   1     1     3     4  1.77       0.770      0.01000   
   2    78   1     2     3     5  1.78       0.780      0.01000   
   2    79   1     2     3     5  1.79       0.790      0.01000   
   2    80   1     2     3     5  1.80       0.800      0.01000   
   2    81   1     1     3     4  1.81       0.810      0.01000   
   2    82   1     2     2     4  1.82       0.820      0.01000   
   2    83   1     2     2     4  1.83       0.830      0.01000   
   2    84   1     1     3     4  1.84       0.840      0.01000   
   2    85   1     2     3     5  1.85       0.850      0.01000   
   2    86   1     2     3     5  1.86       0.860      0.01000   
   2    87   1     2     3     5  1.87       0.870      0.01000   
   2    88   1     2     3     5  1.88       0.880      0.01000   
   2    89   1     2     2     4  1.89       0.890      0.01000   
   2    90   1     2     2     4  1.90       0.900      0.01000   
   2    91   1     2     2     4  1.91       0.910      0.01000   
   2    92   1     2     2     4  1.92       0.920      0.01000   
   2    93   1     2     3     5  1.93       0.930      0.01000   
   2    94   1     1     3     4  1.94       0.940      0.01000   
   2    95   1     1     3     4  1.95       0.950      0.01000   
   2    96   1     1     3     4  1.96       0.960      0.01000   
   2    97   1     2     3     5  1.97       0.970      0.01000   
   2    98   1     2     2     4  1.98       0.980      0.01000   
   2    99   1     1     3     4  1.99       0.990      0.01000   
   2   100   1     3     3     6  2.00       1.00       0.01000   
                          
 THE ANALYSIS HAS COMPLETED SUCCESSFULLY
