 Abaqus/Standard 2020                  DATE 09-Jun-2023 TIME 01:33:20
 SUMMARY OF JOB INFORMATION:
 STEP  INC ATT SEVERE EQUIL TOTAL  TOTAL      STEP       INC OF       DOF    IF
               DISCON ITERS ITERS  TIME/    TIME/LPF    TIME/LPF    MONITOR RIKS
               ITERS               FREQ
   1     1   1U    0     9     9  0.00       0.00       1.000     
   1     1   2U    0     9     9  0.00       0.00       0.5000    
   1     1   3U    0     9     9  0.00       0.00       0.2500    
   1     1   4U    0     9     9  0.00       0.00       0.1250    
   1     1   5U    0     5     5  0.00       0.00       0.06250   
                          
 THE ANALYSIS HAS NOT BEEN COMPLETED
